/*---------------------------------------------------------------------------*\
| =========                 |                                                 |
| \\      /  F ield         | OpenFOAM: The Open Source CFD Toolbox           |
|  \\    /   O peration     | Version:  1912                                  |
|   \\  /    A nd           | Website:  www.openfoam.com                      |
|    \\/     M anipulation  |                                                 |
\*---------------------------------------------------------------------------*/
Build  : _dd4b8cf3-20200514 OPENFOAM=1912 patch=200506
Arch   : "LSB;label=32;scalar=64"
Exec   : Test-PopulationBalanceModel
Date   : Jun 26 2020
Time   : 15:24:41
Host   : GeekoLaptop
PID    : 6780
I/O    : uncollated
Case   : /home/alberto/OpenQBMM/test/univariateMomentAdvection/zeta/regular/1D/testCase1D_100
nProcs : 1
trapFpe: Floating point exception trapping enabled (FOAM_SIGFPE).
fileModificationChecking : Monitoring run-time modified files using timeStampMaster (fileModificationSkew 10)
allowSystemOperations : Allowing user-supplied system call operations

// * * * * * * * * * * * * * * * * * * * * * * * * * * * * * * * * * * * * * //
Create time

Create mesh for time = 0


SIMPLE: no convergence criteria found. Calculations will run for 1 steps.

Reading field U

Reading/calculating face flux field phi

Reading populationBalanceProperties

Selecting populationBalanceModel univariate
Selecting fieldMomentInversion: basicFieldMomentInversion
Selecting univariateMomentInversion: Gauss
Selecting univariateMomentAdvection: zeta
Selecting diffusionModel none

Calculating population balance

Courant Number mean: 0.0249999999999999909794379249206031090579926967620849609375 max: 0.0250000000000003552713678800500929355621337890625

Time = 0.00025

diagonal:  Solving for moment.0.populationBalance, Initial residual = 0, Final residual = 0, No Iterations 0
diagonal:  Solving for moment.1.populationBalance, Initial residual = 0, Final residual = 0, No Iterations 0
diagonal:  Solving for moment.2.populationBalance, Initial residual = 0, Final residual = 0, No Iterations 0
diagonal:  Solving for moment.3.populationBalance, Initial residual = 0, Final residual = 0, No Iterations 0
diagonal:  Solving for moment.4.populationBalance, Initial residual = 0, Final residual = 0, No Iterations 0
diagonal:  Solving for moment.5.populationBalance, Initial residual = 0, Final residual = 0, No Iterations 0
diagonal:  Solving for moment.6.populationBalance, Initial residual = 0, Final residual = 0, No Iterations 0
diagonal:  Solving for moment.7.populationBalance, Initial residual = 0, Final residual = 0, No Iterations 0

Time = 0.0005

diagonal:  Solving for moment.0.populationBalance, Initial residual = 0, Final residual = 0, No Iterations 0
diagonal:  Solving for moment.1.populationBalance, Initial residual = 0, Final residual = 0, No Iterations 0
diagonal:  Solving for moment.2.populationBalance, Initial residual = 0, Final residual = 0, No Iterations 0
diagonal:  Solving for moment.3.populationBalance, Initial residual = 0, Final residual = 0, No Iterations 0
diagonal:  Solving for moment.4.populationBalance, Initial residual = 0, Final residual = 0, No Iterations 0
diagonal:  Solving for moment.5.populationBalance, Initial residual = 0, Final residual = 0, No Iterations 0
diagonal:  Solving for moment.6.populationBalance, Initial residual = 0, Final residual = 0, No Iterations 0
diagonal:  Solving for moment.7.populationBalance, Initial residual = 0, Final residual = 0, No Iterations 0

Time = 0.00075

diagonal:  Solving for moment.0.populationBalance, Initial residual = 0, Final residual = 0, No Iterations 0
diagonal:  Solving for moment.1.populationBalance, Initial residual = 0, Final residual = 0, No Iterations 0
diagonal:  Solving for moment.2.populationBalance, Initial residual = 0, Final residual = 0, No Iterations 0
diagonal:  Solving for moment.3.populationBalance, Initial residual = 0, Final residual = 0, No Iterations 0
diagonal:  Solving for moment.4.populationBalance, Initial residual = 0, Final residual = 0, No Iterations 0
diagonal:  Solving for moment.5.populationBalance, Initial residual = 0, Final residual = 0, No Iterations 0
diagonal:  Solving for moment.6.populationBalance, Initial residual = 0, Final residual = 0, No Iterations 0
diagonal:  Solving for moment.7.populationBalance, Initial residual = 0, Final residual = 0, No Iterations 0

Time = 0.001

diagonal:  Solving for moment.0.populationBalance, Initial residual = 0, Final residual = 0, No Iterations 0
diagonal:  Solving for moment.1.populationBalance, Initial residual = 0, Final residual = 0, No Iterations 0
diagonal:  Solving for moment.2.populationBalance, Initial residual = 0, Final residual = 0, No Iterations 0
diagonal:  Solving for moment.3.populationBalance, Initial residual = 0, Final residual = 0, No Iterations 0
diagonal:  Solving for moment.4.populationBalance, Initial residual = 0, Final residual = 0, No Iterations 0
diagonal:  Solving for moment.5.populationBalance, Initial residual = 0, Final residual = 0, No Iterations 0
diagonal:  Solving for moment.6.populationBalance, Initial residual = 0, Final residual = 0, No Iterations 0
diagonal:  Solving for moment.7.populationBalance, Initial residual = 0, Final residual = 0, No Iterations 0

Time = 0.00125

diagonal:  Solving for moment.0.populationBalance, Initial residual = 0, Final residual = 0, No Iterations 0
diagonal:  Solving for moment.1.populationBalance, Initial residual = 0, Final residual = 0, No Iterations 0
diagonal:  Solving for moment.2.populationBalance, Initial residual = 0, Final residual = 0, No Iterations 0
diagonal:  Solving for moment.3.populationBalance, Initial residual = 0, Final residual = 0, No Iterations 0
diagonal:  Solving for moment.4.populationBalance, Initial residual = 0, Final residual = 0, No Iterations 0
diagonal:  Solving for moment.5.populationBalance, Initial residual = 0, Final residual = 0, No Iterations 0
diagonal:  Solving for moment.6.populationBalance, Initial residual = 0, Final residual = 0, No Iterations 0
diagonal:  Solving for moment.7.populationBalance, Initial residual = 0, Final residual = 0, No Iterations 0

Time = 0.0015

diagonal:  Solving for moment.0.populationBalance, Initial residual = 0, Final residual = 0, No Iterations 0
diagonal:  Solving for moment.1.populationBalance, Initial residual = 0, Final residual = 0, No Iterations 0
diagonal:  Solving for moment.2.populationBalance, Initial residual = 0, Final residual = 0, No Iterations 0
diagonal:  Solving for moment.3.populationBalance, Initial residual = 0, Final residual = 0, No Iterations 0
diagonal:  Solving for moment.4.populationBalance, Initial residual = 0, Final residual = 0, No Iterations 0
diagonal:  Solving for moment.5.populationBalance, Initial residual = 0, Final residual = 0, No Iterations 0
diagonal:  Solving for moment.6.populationBalance, Initial residual = 0, Final residual = 0, No Iterations 0
diagonal:  Solving for moment.7.populationBalance, Initial residual = 0, Final residual = 0, No Iterations 0

Time = 0.00175

diagonal:  Solving for moment.0.populationBalance, Initial residual = 0, Final residual = 0, No Iterations 0
diagonal:  Solving for moment.1.populationBalance, Initial residual = 0, Final residual = 0, No Iterations 0
diagonal:  Solving for moment.2.populationBalance, Initial residual = 0, Final residual = 0, No Iterations 0
diagonal:  Solving for moment.3.populationBalance, Initial residual = 0, Final residual = 0, No Iterations 0
diagonal:  Solving for moment.4.populationBalance, Initial residual = 0, Final residual = 0, No Iterations 0
diagonal:  Solving for moment.5.populationBalance, Initial residual = 0, Final residual = 0, No Iterations 0
diagonal:  Solving for moment.6.populationBalance, Initial residual = 0, Final residual = 0, No Iterations 0
diagonal:  Solving for moment.7.populationBalance, Initial residual = 0, Final residual = 0, No Iterations 0

Time = 0.002

diagonal:  Solving for moment.0.populationBalance, Initial residual = 0, Final residual = 0, No Iterations 0
diagonal:  Solving for moment.1.populationBalance, Initial residual = 0, Final residual = 0, No Iterations 0
diagonal:  Solving for moment.2.populationBalance, Initial residual = 0, Final residual = 0, No Iterations 0
diagonal:  Solving for moment.3.populationBalance, Initial residual = 0, Final residual = 0, No Iterations 0
diagonal:  Solving for moment.4.populationBalance, Initial residual = 0, Final residual = 0, No Iterations 0
diagonal:  Solving for moment.5.populationBalance, Initial residual = 0, Final residual = 0, No Iterations 0
diagonal:  Solving for moment.6.populationBalance, Initial residual = 0, Final residual = 0, No Iterations 0
diagonal:  Solving for moment.7.populationBalance, Initial residual = 0, Final residual = 0, No Iterations 0

Time = 0.00225

diagonal:  Solving for moment.0.populationBalance, Initial residual = 0, Final residual = 0, No Iterations 0
diagonal:  Solving for moment.1.populationBalance, Initial residual = 0, Final residual = 0, No Iterations 0
diagonal:  Solving for moment.2.populationBalance, Initial residual = 0, Final residual = 0, No Iterations 0
diagonal:  Solving for moment.3.populationBalance, Initial residual = 0, Final residual = 0, No Iterations 0
diagonal:  Solving for moment.4.populationBalance, Initial residual = 0, Final residual = 0, No Iterations 0
diagonal:  Solving for moment.5.populationBalance, Initial residual = 0, Final residual = 0, No Iterations 0
diagonal:  Solving for moment.6.populationBalance, Initial residual = 0, Final residual = 0, No Iterations 0
diagonal:  Solving for moment.7.populationBalance, Initial residual = 0, Final residual = 0, No Iterations 0

Time = 0.0025

diagonal:  Solving for moment.0.populationBalance, Initial residual = 0, Final residual = 0, No Iterations 0
diagonal:  Solving for moment.1.populationBalance, Initial residual = 0, Final residual = 0, No Iterations 0
diagonal:  Solving for moment.2.populationBalance, Initial residual = 0, Final residual = 0, No Iterations 0
diagonal:  Solving for moment.3.populationBalance, Initial residual = 0, Final residual = 0, No Iterations 0
diagonal:  Solving for moment.4.populationBalance, Initial residual = 0, Final residual = 0, No Iterations 0
diagonal:  Solving for moment.5.populationBalance, Initial residual = 0, Final residual = 0, No Iterations 0
diagonal:  Solving for moment.6.populationBalance, Initial residual = 0, Final residual = 0, No Iterations 0
diagonal:  Solving for moment.7.populationBalance, Initial residual = 0, Final residual = 0, No Iterations 0

Time = 0.00275

diagonal:  Solving for moment.0.populationBalance, Initial residual = 0, Final residual = 0, No Iterations 0
diagonal:  Solving for moment.1.populationBalance, Initial residual = 0, Final residual = 0, No Iterations 0
diagonal:  Solving for moment.2.populationBalance, Initial residual = 0, Final residual = 0, No Iterations 0
diagonal:  Solving for moment.3.populationBalance, Initial residual = 0, Final residual = 0, No Iterations 0
diagonal:  Solving for moment.4.populationBalance, Initial residual = 0, Final residual = 0, No Iterations 0
diagonal:  Solving for moment.5.populationBalance, Initial residual = 0, Final residual = 0, No Iterations 0
diagonal:  Solving for moment.6.populationBalance, Initial residual = 0, Final residual = 0, No Iterations 0
diagonal:  Solving for moment.7.populationBalance, Initial residual = 0, Final residual = 0, No Iterations 0

Time = 0.003

diagonal:  Solving for moment.0.populationBalance, Initial residual = 0, Final residual = 0, No Iterations 0
diagonal:  Solving for moment.1.populationBalance, Initial residual = 0, Final residual = 0, No Iterations 0
diagonal:  Solving for moment.2.populationBalance, Initial residual = 0, Final residual = 0, No Iterations 0
diagonal:  Solving for moment.3.populationBalance, Initial residual = 0, Final residual = 0, No Iterations 0
diagonal:  Solving for moment.4.populationBalance, Initial residual = 0, Final residual = 0, No Iterations 0
diagonal:  Solving for moment.5.populationBalance, Initial residual = 0, Final residual = 0, No Iterations 0
diagonal:  Solving for moment.6.populationBalance, Initial residual = 0, Final residual = 0, No Iterations 0
diagonal:  Solving for moment.7.populationBalance, Initial residual = 0, Final residual = 0, No Iterations 0

Time = 0.00325

diagonal:  Solving for moment.0.populationBalance, Initial residual = 0, Final residual = 0, No Iterations 0
diagonal:  Solving for moment.1.populationBalance, Initial residual = 0, Final residual = 0, No Iterations 0
diagonal:  Solving for moment.2.populationBalance, Initial residual = 0, Final residual = 0, No Iterations 0
diagonal:  Solving for moment.3.populationBalance, Initial residual = 0, Final residual = 0, No Iterations 0
diagonal:  Solving for moment.4.populationBalance, Initial residual = 0, Final residual = 0, No Iterations 0
diagonal:  Solving for moment.5.populationBalance, Initial residual = 0, Final residual = 0, No Iterations 0
diagonal:  Solving for moment.6.populationBalance, Initial residual = 0, Final residual = 0, No Iterations 0
diagonal:  Solving for moment.7.populationBalance, Initial residual = 0, Final residual = 0, No Iterations 0

Time = 0.0035

diagonal:  Solving for moment.0.populationBalance, Initial residual = 0, Final residual = 0, No Iterations 0
diagonal:  Solving for moment.1.populationBalance, Initial residual = 0, Final residual = 0, No Iterations 0
diagonal:  Solving for moment.2.populationBalance, Initial residual = 0, Final residual = 0, No Iterations 0
diagonal:  Solving for moment.3.populationBalance, Initial residual = 0, Final residual = 0, No Iterations 0
diagonal:  Solving for moment.4.populationBalance, Initial residual = 0, Final residual = 0, No Iterations 0
diagonal:  Solving for moment.5.populationBalance, Initial residual = 0, Final residual = 0, No Iterations 0
diagonal:  Solving for moment.6.populationBalance, Initial residual = 0, Final residual = 0, No Iterations 0
diagonal:  Solving for moment.7.populationBalance, Initial residual = 0, Final residual = 0, No Iterations 0

Time = 0.00375

diagonal:  Solving for moment.0.populationBalance, Initial residual = 0, Final residual = 0, No Iterations 0
diagonal:  Solving for moment.1.populationBalance, Initial residual = 0, Final residual = 0, No Iterations 0
diagonal:  Solving for moment.2.populationBalance, Initial residual = 0, Final residual = 0, No Iterations 0
diagonal:  Solving for moment.3.populationBalance, Initial residual = 0, Final residual = 0, No Iterations 0
diagonal:  Solving for moment.4.populationBalance, Initial residual = 0, Final residual = 0, No Iterations 0
diagonal:  Solving for moment.5.populationBalance, Initial residual = 0, Final residual = 0, No Iterations 0
diagonal:  Solving for moment.6.populationBalance, Initial residual = 0, Final residual = 0, No Iterations 0
diagonal:  Solving for moment.7.populationBalance, Initial residual = 0, Final residual = 0, No Iterations 0

Time = 0.004

diagonal:  Solving for moment.0.populationBalance, Initial residual = 0, Final residual = 0, No Iterations 0
diagonal:  Solving for moment.1.populationBalance, Initial residual = 0, Final residual = 0, No Iterations 0
diagonal:  Solving for moment.2.populationBalance, Initial residual = 0, Final residual = 0, No Iterations 0
diagonal:  Solving for moment.3.populationBalance, Initial residual = 0, Final residual = 0, No Iterations 0
diagonal:  Solving for moment.4.populationBalance, Initial residual = 0, Final residual = 0, No Iterations 0
diagonal:  Solving for moment.5.populationBalance, Initial residual = 0, Final residual = 0, No Iterations 0
diagonal:  Solving for moment.6.populationBalance, Initial residual = 0, Final residual = 0, No Iterations 0
diagonal:  Solving for moment.7.populationBalance, Initial residual = 0, Final residual = 0, No Iterations 0

Time = 0.00425

diagonal:  Solving for moment.0.populationBalance, Initial residual = 0, Final residual = 0, No Iterations 0
diagonal:  Solving for moment.1.populationBalance, Initial residual = 0, Final residual = 0, No Iterations 0
diagonal:  Solving for moment.2.populationBalance, Initial residual = 0, Final residual = 0, No Iterations 0
diagonal:  Solving for moment.3.populationBalance, Initial residual = 0, Final residual = 0, No Iterations 0
diagonal:  Solving for moment.4.populationBalance, Initial residual = 0, Final residual = 0, No Iterations 0
diagonal:  Solving for moment.5.populationBalance, Initial residual = 0, Final residual = 0, No Iterations 0
diagonal:  Solving for moment.6.populationBalance, Initial residual = 0, Final residual = 0, No Iterations 0
diagonal:  Solving for moment.7.populationBalance, Initial residual = 0, Final residual = 0, No Iterations 0

Time = 0.0045

diagonal:  Solving for moment.0.populationBalance, Initial residual = 0, Final residual = 0, No Iterations 0
diagonal:  Solving for moment.1.populationBalance, Initial residual = 0, Final residual = 0, No Iterations 0
diagonal:  Solving for moment.2.populationBalance, Initial residual = 0, Final residual = 0, No Iterations 0
diagonal:  Solving for moment.3.populationBalance, Initial residual = 0, Final residual = 0, No Iterations 0
diagonal:  Solving for moment.4.populationBalance, Initial residual = 0, Final residual = 0, No Iterations 0
diagonal:  Solving for moment.5.populationBalance, Initial residual = 0, Final residual = 0, No Iterations 0
diagonal:  Solving for moment.6.populationBalance, Initial residual = 0, Final residual = 0, No Iterations 0
diagonal:  Solving for moment.7.populationBalance, Initial residual = 0, Final residual = 0, No Iterations 0

Time = 0.00475

diagonal:  Solving for moment.0.populationBalance, Initial residual = 0, Final residual = 0, No Iterations 0
diagonal:  Solving for moment.1.populationBalance, Initial residual = 0, Final residual = 0, No Iterations 0
diagonal:  Solving for moment.2.populationBalance, Initial residual = 0, Final residual = 0, No Iterations 0
diagonal:  Solving for moment.3.populationBalance, Initial residual = 0, Final residual = 0, No Iterations 0
diagonal:  Solving for moment.4.populationBalance, Initial residual = 0, Final residual = 0, No Iterations 0
diagonal:  Solving for moment.5.populationBalance, Initial residual = 0, Final residual = 0, No Iterations 0
diagonal:  Solving for moment.6.populationBalance, Initial residual = 0, Final residual = 0, No Iterations 0
diagonal:  Solving for moment.7.populationBalance, Initial residual = 0, Final residual = 0, No Iterations 0

Time = 0.005

diagonal:  Solving for moment.0.populationBalance, Initial residual = 0, Final residual = 0, No Iterations 0
diagonal:  Solving for moment.1.populationBalance, Initial residual = 0, Final residual = 0, No Iterations 0
diagonal:  Solving for moment.2.populationBalance, Initial residual = 0, Final residual = 0, No Iterations 0
diagonal:  Solving for moment.3.populationBalance, Initial residual = 0, Final residual = 0, No Iterations 0
diagonal:  Solving for moment.4.populationBalance, Initial residual = 0, Final residual = 0, No Iterations 0
diagonal:  Solving for moment.5.populationBalance, Initial residual = 0, Final residual = 0, No Iterations 0
diagonal:  Solving for moment.6.populationBalance, Initial residual = 0, Final residual = 0, No Iterations 0
diagonal:  Solving for moment.7.populationBalance, Initial residual = 0, Final residual = 0, No Iterations 0

Time = 0.00525

diagonal:  Solving for moment.0.populationBalance, Initial residual = 0, Final residual = 0, No Iterations 0
diagonal:  Solving for moment.1.populationBalance, Initial residual = 0, Final residual = 0, No Iterations 0
diagonal:  Solving for moment.2.populationBalance, Initial residual = 0, Final residual = 0, No Iterations 0
diagonal:  Solving for moment.3.populationBalance, Initial residual = 0, Final residual = 0, No Iterations 0
diagonal:  Solving for moment.4.populationBalance, Initial residual = 0, Final residual = 0, No Iterations 0
diagonal:  Solving for moment.5.populationBalance, Initial residual = 0, Final residual = 0, No Iterations 0
diagonal:  Solving for moment.6.populationBalance, Initial residual = 0, Final residual = 0, No Iterations 0
diagonal:  Solving for moment.7.populationBalance, Initial residual = 0, Final residual = 0, No Iterations 0

Time = 0.0055

diagonal:  Solving for moment.0.populationBalance, Initial residual = 0, Final residual = 0, No Iterations 0
diagonal:  Solving for moment.1.populationBalance, Initial residual = 0, Final residual = 0, No Iterations 0
diagonal:  Solving for moment.2.populationBalance, Initial residual = 0, Final residual = 0, No Iterations 0
diagonal:  Solving for moment.3.populationBalance, Initial residual = 0, Final residual = 0, No Iterations 0
diagonal:  Solving for moment.4.populationBalance, Initial residual = 0, Final residual = 0, No Iterations 0
diagonal:  Solving for moment.5.populationBalance, Initial residual = 0, Final residual = 0, No Iterations 0
diagonal:  Solving for moment.6.populationBalance, Initial residual = 0, Final residual = 0, No Iterations 0
diagonal:  Solving for moment.7.populationBalance, Initial residual = 0, Final residual = 0, No Iterations 0

Time = 0.00575

diagonal:  Solving for moment.0.populationBalance, Initial residual = 0, Final residual = 0, No Iterations 0
diagonal:  Solving for moment.1.populationBalance, Initial residual = 0, Final residual = 0, No Iterations 0
diagonal:  Solving for moment.2.populationBalance, Initial residual = 0, Final residual = 0, No Iterations 0
diagonal:  Solving for moment.3.populationBalance, Initial residual = 0, Final residual = 0, No Iterations 0
diagonal:  Solving for moment.4.populationBalance, Initial residual = 0, Final residual = 0, No Iterations 0
diagonal:  Solving for moment.5.populationBalance, Initial residual = 0, Final residual = 0, No Iterations 0
diagonal:  Solving for moment.6.populationBalance, Initial residual = 0, Final residual = 0, No Iterations 0
diagonal:  Solving for moment.7.populationBalance, Initial residual = 0, Final residual = 0, No Iterations 0

Time = 0.006

diagonal:  Solving for moment.0.populationBalance, Initial residual = 0, Final residual = 0, No Iterations 0
diagonal:  Solving for moment.1.populationBalance, Initial residual = 0, Final residual = 0, No Iterations 0
diagonal:  Solving for moment.2.populationBalance, Initial residual = 0, Final residual = 0, No Iterations 0
diagonal:  Solving for moment.3.populationBalance, Initial residual = 0, Final residual = 0, No Iterations 0
diagonal:  Solving for moment.4.populationBalance, Initial residual = 0, Final residual = 0, No Iterations 0
diagonal:  Solving for moment.5.populationBalance, Initial residual = 0, Final residual = 0, No Iterations 0
diagonal:  Solving for moment.6.populationBalance, Initial residual = 0, Final residual = 0, No Iterations 0
diagonal:  Solving for moment.7.populationBalance, Initial residual = 0, Final residual = 0, No Iterations 0

Time = 0.00625

diagonal:  Solving for moment.0.populationBalance, Initial residual = 0, Final residual = 0, No Iterations 0
diagonal:  Solving for moment.1.populationBalance, Initial residual = 0, Final residual = 0, No Iterations 0
diagonal:  Solving for moment.2.populationBalance, Initial residual = 0, Final residual = 0, No Iterations 0
diagonal:  Solving for moment.3.populationBalance, Initial residual = 0, Final residual = 0, No Iterations 0
diagonal:  Solving for moment.4.populationBalance, Initial residual = 0, Final residual = 0, No Iterations 0
diagonal:  Solving for moment.5.populationBalance, Initial residual = 0, Final residual = 0, No Iterations 0
diagonal:  Solving for moment.6.populationBalance, Initial residual = 0, Final residual = 0, No Iterations 0
diagonal:  Solving for moment.7.populationBalance, Initial residual = 0, Final residual = 0, No Iterations 0

Time = 0.0065

diagonal:  Solving for moment.0.populationBalance, Initial residual = 0, Final residual = 0, No Iterations 0
diagonal:  Solving for moment.1.populationBalance, Initial residual = 0, Final residual = 0, No Iterations 0
diagonal:  Solving for moment.2.populationBalance, Initial residual = 0, Final residual = 0, No Iterations 0
diagonal:  Solving for moment.3.populationBalance, Initial residual = 0, Final residual = 0, No Iterations 0
diagonal:  Solving for moment.4.populationBalance, Initial residual = 0, Final residual = 0, No Iterations 0
diagonal:  Solving for moment.5.populationBalance, Initial residual = 0, Final residual = 0, No Iterations 0
diagonal:  Solving for moment.6.populationBalance, Initial residual = 0, Final residual = 0, No Iterations 0
diagonal:  Solving for moment.7.populationBalance, Initial residual = 0, Final residual = 0, No Iterations 0

Time = 0.00675

diagonal:  Solving for moment.0.populationBalance, Initial residual = 0, Final residual = 0, No Iterations 0
diagonal:  Solving for moment.1.populationBalance, Initial residual = 0, Final residual = 0, No Iterations 0
diagonal:  Solving for moment.2.populationBalance, Initial residual = 0, Final residual = 0, No Iterations 0
diagonal:  Solving for moment.3.populationBalance, Initial residual = 0, Final residual = 0, No Iterations 0
diagonal:  Solving for moment.4.populationBalance, Initial residual = 0, Final residual = 0, No Iterations 0
diagonal:  Solving for moment.5.populationBalance, Initial residual = 0, Final residual = 0, No Iterations 0
diagonal:  Solving for moment.6.populationBalance, Initial residual = 0, Final residual = 0, No Iterations 0
diagonal:  Solving for moment.7.populationBalance, Initial residual = 0, Final residual = 0, No Iterations 0

Time = 0.007

diagonal:  Solving for moment.0.populationBalance, Initial residual = 0, Final residual = 0, No Iterations 0
diagonal:  Solving for moment.1.populationBalance, Initial residual = 0, Final residual = 0, No Iterations 0
diagonal:  Solving for moment.2.populationBalance, Initial residual = 0, Final residual = 0, No Iterations 0
diagonal:  Solving for moment.3.populationBalance, Initial residual = 0, Final residual = 0, No Iterations 0
diagonal:  Solving for moment.4.populationBalance, Initial residual = 0, Final residual = 0, No Iterations 0
diagonal:  Solving for moment.5.populationBalance, Initial residual = 0, Final residual = 0, No Iterations 0
diagonal:  Solving for moment.6.populationBalance, Initial residual = 0, Final residual = 0, No Iterations 0
diagonal:  Solving for moment.7.populationBalance, Initial residual = 0, Final residual = 0, No Iterations 0

Time = 0.00725

diagonal:  Solving for moment.0.populationBalance, Initial residual = 0, Final residual = 0, No Iterations 0
diagonal:  Solving for moment.1.populationBalance, Initial residual = 0, Final residual = 0, No Iterations 0
diagonal:  Solving for moment.2.populationBalance, Initial residual = 0, Final residual = 0, No Iterations 0
diagonal:  Solving for moment.3.populationBalance, Initial residual = 0, Final residual = 0, No Iterations 0
diagonal:  Solving for moment.4.populationBalance, Initial residual = 0, Final residual = 0, No Iterations 0
diagonal:  Solving for moment.5.populationBalance, Initial residual = 0, Final residual = 0, No Iterations 0
diagonal:  Solving for moment.6.populationBalance, Initial residual = 0, Final residual = 0, No Iterations 0
diagonal:  Solving for moment.7.populationBalance, Initial residual = 0, Final residual = 0, No Iterations 0

Time = 0.0075

diagonal:  Solving for moment.0.populationBalance, Initial residual = 0, Final residual = 0, No Iterations 0
diagonal:  Solving for moment.1.populationBalance, Initial residual = 0, Final residual = 0, No Iterations 0
diagonal:  Solving for moment.2.populationBalance, Initial residual = 0, Final residual = 0, No Iterations 0
diagonal:  Solving for moment.3.populationBalance, Initial residual = 0, Final residual = 0, No Iterations 0
diagonal:  Solving for moment.4.populationBalance, Initial residual = 0, Final residual = 0, No Iterations 0
diagonal:  Solving for moment.5.populationBalance, Initial residual = 0, Final residual = 0, No Iterations 0
diagonal:  Solving for moment.6.populationBalance, Initial residual = 0, Final residual = 0, No Iterations 0
diagonal:  Solving for moment.7.populationBalance, Initial residual = 0, Final residual = 0, No Iterations 0

Time = 0.00775

diagonal:  Solving for moment.0.populationBalance, Initial residual = 0, Final residual = 0, No Iterations 0
diagonal:  Solving for moment.1.populationBalance, Initial residual = 0, Final residual = 0, No Iterations 0
diagonal:  Solving for moment.2.populationBalance, Initial residual = 0, Final residual = 0, No Iterations 0
diagonal:  Solving for moment.3.populationBalance, Initial residual = 0, Final residual = 0, No Iterations 0
diagonal:  Solving for moment.4.populationBalance, Initial residual = 0, Final residual = 0, No Iterations 0
diagonal:  Solving for moment.5.populationBalance, Initial residual = 0, Final residual = 0, No Iterations 0
diagonal:  Solving for moment.6.populationBalance, Initial residual = 0, Final residual = 0, No Iterations 0
diagonal:  Solving for moment.7.populationBalance, Initial residual = 0, Final residual = 0, No Iterations 0

Time = 0.008

diagonal:  Solving for moment.0.populationBalance, Initial residual = 0, Final residual = 0, No Iterations 0
diagonal:  Solving for moment.1.populationBalance, Initial residual = 0, Final residual = 0, No Iterations 0
diagonal:  Solving for moment.2.populationBalance, Initial residual = 0, Final residual = 0, No Iterations 0
diagonal:  Solving for moment.3.populationBalance, Initial residual = 0, Final residual = 0, No Iterations 0
diagonal:  Solving for moment.4.populationBalance, Initial residual = 0, Final residual = 0, No Iterations 0
diagonal:  Solving for moment.5.populationBalance, Initial residual = 0, Final residual = 0, No Iterations 0
diagonal:  Solving for moment.6.populationBalance, Initial residual = 0, Final residual = 0, No Iterations 0
diagonal:  Solving for moment.7.populationBalance, Initial residual = 0, Final residual = 0, No Iterations 0

Time = 0.00825

diagonal:  Solving for moment.0.populationBalance, Initial residual = 0, Final residual = 0, No Iterations 0
diagonal:  Solving for moment.1.populationBalance, Initial residual = 0, Final residual = 0, No Iterations 0
diagonal:  Solving for moment.2.populationBalance, Initial residual = 0, Final residual = 0, No Iterations 0
diagonal:  Solving for moment.3.populationBalance, Initial residual = 0, Final residual = 0, No Iterations 0
diagonal:  Solving for moment.4.populationBalance, Initial residual = 0, Final residual = 0, No Iterations 0
diagonal:  Solving for moment.5.populationBalance, Initial residual = 0, Final residual = 0, No Iterations 0
diagonal:  Solving for moment.6.populationBalance, Initial residual = 0, Final residual = 0, No Iterations 0
diagonal:  Solving for moment.7.populationBalance, Initial residual = 0, Final residual = 0, No Iterations 0

Time = 0.0085

diagonal:  Solving for moment.0.populationBalance, Initial residual = 0, Final residual = 0, No Iterations 0
diagonal:  Solving for moment.1.populationBalance, Initial residual = 0, Final residual = 0, No Iterations 0
diagonal:  Solving for moment.2.populationBalance, Initial residual = 0, Final residual = 0, No Iterations 0
diagonal:  Solving for moment.3.populationBalance, Initial residual = 0, Final residual = 0, No Iterations 0
diagonal:  Solving for moment.4.populationBalance, Initial residual = 0, Final residual = 0, No Iterations 0
diagonal:  Solving for moment.5.populationBalance, Initial residual = 0, Final residual = 0, No Iterations 0
diagonal:  Solving for moment.6.populationBalance, Initial residual = 0, Final residual = 0, No Iterations 0
diagonal:  Solving for moment.7.populationBalance, Initial residual = 0, Final residual = 0, No Iterations 0

Time = 0.00875

diagonal:  Solving for moment.0.populationBalance, Initial residual = 0, Final residual = 0, No Iterations 0
diagonal:  Solving for moment.1.populationBalance, Initial residual = 0, Final residual = 0, No Iterations 0
diagonal:  Solving for moment.2.populationBalance, Initial residual = 0, Final residual = 0, No Iterations 0
diagonal:  Solving for moment.3.populationBalance, Initial residual = 0, Final residual = 0, No Iterations 0
diagonal:  Solving for moment.4.populationBalance, Initial residual = 0, Final residual = 0, No Iterations 0
diagonal:  Solving for moment.5.populationBalance, Initial residual = 0, Final residual = 0, No Iterations 0
diagonal:  Solving for moment.6.populationBalance, Initial residual = 0, Final residual = 0, No Iterations 0
diagonal:  Solving for moment.7.populationBalance, Initial residual = 0, Final residual = 0, No Iterations 0

Time = 0.009

diagonal:  Solving for moment.0.populationBalance, Initial residual = 0, Final residual = 0, No Iterations 0
diagonal:  Solving for moment.1.populationBalance, Initial residual = 0, Final residual = 0, No Iterations 0
diagonal:  Solving for moment.2.populationBalance, Initial residual = 0, Final residual = 0, No Iterations 0
diagonal:  Solving for moment.3.populationBalance, Initial residual = 0, Final residual = 0, No Iterations 0
diagonal:  Solving for moment.4.populationBalance, Initial residual = 0, Final residual = 0, No Iterations 0
diagonal:  Solving for moment.5.populationBalance, Initial residual = 0, Final residual = 0, No Iterations 0
diagonal:  Solving for moment.6.populationBalance, Initial residual = 0, Final residual = 0, No Iterations 0
diagonal:  Solving for moment.7.populationBalance, Initial residual = 0, Final residual = 0, No Iterations 0

Time = 0.00925

diagonal:  Solving for moment.0.populationBalance, Initial residual = 0, Final residual = 0, No Iterations 0
diagonal:  Solving for moment.1.populationBalance, Initial residual = 0, Final residual = 0, No Iterations 0
diagonal:  Solving for moment.2.populationBalance, Initial residual = 0, Final residual = 0, No Iterations 0
diagonal:  Solving for moment.3.populationBalance, Initial residual = 0, Final residual = 0, No Iterations 0
diagonal:  Solving for moment.4.populationBalance, Initial residual = 0, Final residual = 0, No Iterations 0
diagonal:  Solving for moment.5.populationBalance, Initial residual = 0, Final residual = 0, No Iterations 0
diagonal:  Solving for moment.6.populationBalance, Initial residual = 0, Final residual = 0, No Iterations 0
diagonal:  Solving for moment.7.populationBalance, Initial residual = 0, Final residual = 0, No Iterations 0

Time = 0.0095

diagonal:  Solving for moment.0.populationBalance, Initial residual = 0, Final residual = 0, No Iterations 0
diagonal:  Solving for moment.1.populationBalance, Initial residual = 0, Final residual = 0, No Iterations 0
diagonal:  Solving for moment.2.populationBalance, Initial residual = 0, Final residual = 0, No Iterations 0
diagonal:  Solving for moment.3.populationBalance, Initial residual = 0, Final residual = 0, No Iterations 0
diagonal:  Solving for moment.4.populationBalance, Initial residual = 0, Final residual = 0, No Iterations 0
diagonal:  Solving for moment.5.populationBalance, Initial residual = 0, Final residual = 0, No Iterations 0
diagonal:  Solving for moment.6.populationBalance, Initial residual = 0, Final residual = 0, No Iterations 0
diagonal:  Solving for moment.7.populationBalance, Initial residual = 0, Final residual = 0, No Iterations 0

Time = 0.00975

diagonal:  Solving for moment.0.populationBalance, Initial residual = 0, Final residual = 0, No Iterations 0
diagonal:  Solving for moment.1.populationBalance, Initial residual = 0, Final residual = 0, No Iterations 0
diagonal:  Solving for moment.2.populationBalance, Initial residual = 0, Final residual = 0, No Iterations 0
diagonal:  Solving for moment.3.populationBalance, Initial residual = 0, Final residual = 0, No Iterations 0
diagonal:  Solving for moment.4.populationBalance, Initial residual = 0, Final residual = 0, No Iterations 0
diagonal:  Solving for moment.5.populationBalance, Initial residual = 0, Final residual = 0, No Iterations 0
diagonal:  Solving for moment.6.populationBalance, Initial residual = 0, Final residual = 0, No Iterations 0
diagonal:  Solving for moment.7.populationBalance, Initial residual = 0, Final residual = 0, No Iterations 0

Time = 0.01

diagonal:  Solving for moment.0.populationBalance, Initial residual = 0, Final residual = 0, No Iterations 0
diagonal:  Solving for moment.1.populationBalance, Initial residual = 0, Final residual = 0, No Iterations 0
diagonal:  Solving for moment.2.populationBalance, Initial residual = 0, Final residual = 0, No Iterations 0
diagonal:  Solving for moment.3.populationBalance, Initial residual = 0, Final residual = 0, No Iterations 0
diagonal:  Solving for moment.4.populationBalance, Initial residual = 0, Final residual = 0, No Iterations 0
diagonal:  Solving for moment.5.populationBalance, Initial residual = 0, Final residual = 0, No Iterations 0
diagonal:  Solving for moment.6.populationBalance, Initial residual = 0, Final residual = 0, No Iterations 0
diagonal:  Solving for moment.7.populationBalance, Initial residual = 0, Final residual = 0, No Iterations 0

Time = 0.01025

diagonal:  Solving for moment.0.populationBalance, Initial residual = 0, Final residual = 0, No Iterations 0
diagonal:  Solving for moment.1.populationBalance, Initial residual = 0, Final residual = 0, No Iterations 0
diagonal:  Solving for moment.2.populationBalance, Initial residual = 0, Final residual = 0, No Iterations 0
diagonal:  Solving for moment.3.populationBalance, Initial residual = 0, Final residual = 0, No Iterations 0
diagonal:  Solving for moment.4.populationBalance, Initial residual = 0, Final residual = 0, No Iterations 0
diagonal:  Solving for moment.5.populationBalance, Initial residual = 0, Final residual = 0, No Iterations 0
diagonal:  Solving for moment.6.populationBalance, Initial residual = 0, Final residual = 0, No Iterations 0
diagonal:  Solving for moment.7.populationBalance, Initial residual = 0, Final residual = 0, No Iterations 0

Time = 0.0105

diagonal:  Solving for moment.0.populationBalance, Initial residual = 0, Final residual = 0, No Iterations 0
diagonal:  Solving for moment.1.populationBalance, Initial residual = 0, Final residual = 0, No Iterations 0
diagonal:  Solving for moment.2.populationBalance, Initial residual = 0, Final residual = 0, No Iterations 0
diagonal:  Solving for moment.3.populationBalance, Initial residual = 0, Final residual = 0, No Iterations 0
diagonal:  Solving for moment.4.populationBalance, Initial residual = 0, Final residual = 0, No Iterations 0
diagonal:  Solving for moment.5.populationBalance, Initial residual = 0, Final residual = 0, No Iterations 0
diagonal:  Solving for moment.6.populationBalance, Initial residual = 0, Final residual = 0, No Iterations 0
diagonal:  Solving for moment.7.populationBalance, Initial residual = 0, Final residual = 0, No Iterations 0

Time = 0.01075

diagonal:  Solving for moment.0.populationBalance, Initial residual = 0, Final residual = 0, No Iterations 0
diagonal:  Solving for moment.1.populationBalance, Initial residual = 0, Final residual = 0, No Iterations 0
diagonal:  Solving for moment.2.populationBalance, Initial residual = 0, Final residual = 0, No Iterations 0
diagonal:  Solving for moment.3.populationBalance, Initial residual = 0, Final residual = 0, No Iterations 0
diagonal:  Solving for moment.4.populationBalance, Initial residual = 0, Final residual = 0, No Iterations 0
diagonal:  Solving for moment.5.populationBalance, Initial residual = 0, Final residual = 0, No Iterations 0
diagonal:  Solving for moment.6.populationBalance, Initial residual = 0, Final residual = 0, No Iterations 0
diagonal:  Solving for moment.7.populationBalance, Initial residual = 0, Final residual = 0, No Iterations 0

Time = 0.011

diagonal:  Solving for moment.0.populationBalance, Initial residual = 0, Final residual = 0, No Iterations 0
diagonal:  Solving for moment.1.populationBalance, Initial residual = 0, Final residual = 0, No Iterations 0
diagonal:  Solving for moment.2.populationBalance, Initial residual = 0, Final residual = 0, No Iterations 0
diagonal:  Solving for moment.3.populationBalance, Initial residual = 0, Final residual = 0, No Iterations 0
diagonal:  Solving for moment.4.populationBalance, Initial residual = 0, Final residual = 0, No Iterations 0
diagonal:  Solving for moment.5.populationBalance, Initial residual = 0, Final residual = 0, No Iterations 0
diagonal:  Solving for moment.6.populationBalance, Initial residual = 0, Final residual = 0, No Iterations 0
diagonal:  Solving for moment.7.populationBalance, Initial residual = 0, Final residual = 0, No Iterations 0

Time = 0.01125

diagonal:  Solving for moment.0.populationBalance, Initial residual = 0, Final residual = 0, No Iterations 0
diagonal:  Solving for moment.1.populationBalance, Initial residual = 0, Final residual = 0, No Iterations 0
diagonal:  Solving for moment.2.populationBalance, Initial residual = 0, Final residual = 0, No Iterations 0
diagonal:  Solving for moment.3.populationBalance, Initial residual = 0, Final residual = 0, No Iterations 0
diagonal:  Solving for moment.4.populationBalance, Initial residual = 0, Final residual = 0, No Iterations 0
diagonal:  Solving for moment.5.populationBalance, Initial residual = 0, Final residual = 0, No Iterations 0
diagonal:  Solving for moment.6.populationBalance, Initial residual = 0, Final residual = 0, No Iterations 0
diagonal:  Solving for moment.7.populationBalance, Initial residual = 0, Final residual = 0, No Iterations 0

Time = 0.0115

diagonal:  Solving for moment.0.populationBalance, Initial residual = 0, Final residual = 0, No Iterations 0
diagonal:  Solving for moment.1.populationBalance, Initial residual = 0, Final residual = 0, No Iterations 0
diagonal:  Solving for moment.2.populationBalance, Initial residual = 0, Final residual = 0, No Iterations 0
diagonal:  Solving for moment.3.populationBalance, Initial residual = 0, Final residual = 0, No Iterations 0
diagonal:  Solving for moment.4.populationBalance, Initial residual = 0, Final residual = 0, No Iterations 0
diagonal:  Solving for moment.5.populationBalance, Initial residual = 0, Final residual = 0, No Iterations 0
diagonal:  Solving for moment.6.populationBalance, Initial residual = 0, Final residual = 0, No Iterations 0
diagonal:  Solving for moment.7.populationBalance, Initial residual = 0, Final residual = 0, No Iterations 0

Time = 0.01175

diagonal:  Solving for moment.0.populationBalance, Initial residual = 0, Final residual = 0, No Iterations 0
diagonal:  Solving for moment.1.populationBalance, Initial residual = 0, Final residual = 0, No Iterations 0
diagonal:  Solving for moment.2.populationBalance, Initial residual = 0, Final residual = 0, No Iterations 0
diagonal:  Solving for moment.3.populationBalance, Initial residual = 0, Final residual = 0, No Iterations 0
diagonal:  Solving for moment.4.populationBalance, Initial residual = 0, Final residual = 0, No Iterations 0
diagonal:  Solving for moment.5.populationBalance, Initial residual = 0, Final residual = 0, No Iterations 0
diagonal:  Solving for moment.6.populationBalance, Initial residual = 0, Final residual = 0, No Iterations 0
diagonal:  Solving for moment.7.populationBalance, Initial residual = 0, Final residual = 0, No Iterations 0

Time = 0.012

diagonal:  Solving for moment.0.populationBalance, Initial residual = 0, Final residual = 0, No Iterations 0
diagonal:  Solving for moment.1.populationBalance, Initial residual = 0, Final residual = 0, No Iterations 0
diagonal:  Solving for moment.2.populationBalance, Initial residual = 0, Final residual = 0, No Iterations 0
diagonal:  Solving for moment.3.populationBalance, Initial residual = 0, Final residual = 0, No Iterations 0
diagonal:  Solving for moment.4.populationBalance, Initial residual = 0, Final residual = 0, No Iterations 0
diagonal:  Solving for moment.5.populationBalance, Initial residual = 0, Final residual = 0, No Iterations 0
diagonal:  Solving for moment.6.populationBalance, Initial residual = 0, Final residual = 0, No Iterations 0
diagonal:  Solving for moment.7.populationBalance, Initial residual = 0, Final residual = 0, No Iterations 0

Time = 0.01225

diagonal:  Solving for moment.0.populationBalance, Initial residual = 0, Final residual = 0, No Iterations 0
diagonal:  Solving for moment.1.populationBalance, Initial residual = 0, Final residual = 0, No Iterations 0
diagonal:  Solving for moment.2.populationBalance, Initial residual = 0, Final residual = 0, No Iterations 0
diagonal:  Solving for moment.3.populationBalance, Initial residual = 0, Final residual = 0, No Iterations 0
diagonal:  Solving for moment.4.populationBalance, Initial residual = 0, Final residual = 0, No Iterations 0
diagonal:  Solving for moment.5.populationBalance, Initial residual = 0, Final residual = 0, No Iterations 0
diagonal:  Solving for moment.6.populationBalance, Initial residual = 0, Final residual = 0, No Iterations 0
diagonal:  Solving for moment.7.populationBalance, Initial residual = 0, Final residual = 0, No Iterations 0

Time = 0.0125

diagonal:  Solving for moment.0.populationBalance, Initial residual = 0, Final residual = 0, No Iterations 0
diagonal:  Solving for moment.1.populationBalance, Initial residual = 0, Final residual = 0, No Iterations 0
diagonal:  Solving for moment.2.populationBalance, Initial residual = 0, Final residual = 0, No Iterations 0
diagonal:  Solving for moment.3.populationBalance, Initial residual = 0, Final residual = 0, No Iterations 0
diagonal:  Solving for moment.4.populationBalance, Initial residual = 0, Final residual = 0, No Iterations 0
diagonal:  Solving for moment.5.populationBalance, Initial residual = 0, Final residual = 0, No Iterations 0
diagonal:  Solving for moment.6.populationBalance, Initial residual = 0, Final residual = 0, No Iterations 0
diagonal:  Solving for moment.7.populationBalance, Initial residual = 0, Final residual = 0, No Iterations 0

Time = 0.01275

diagonal:  Solving for moment.0.populationBalance, Initial residual = 0, Final residual = 0, No Iterations 0
diagonal:  Solving for moment.1.populationBalance, Initial residual = 0, Final residual = 0, No Iterations 0
diagonal:  Solving for moment.2.populationBalance, Initial residual = 0, Final residual = 0, No Iterations 0
diagonal:  Solving for moment.3.populationBalance, Initial residual = 0, Final residual = 0, No Iterations 0
diagonal:  Solving for moment.4.populationBalance, Initial residual = 0, Final residual = 0, No Iterations 0
diagonal:  Solving for moment.5.populationBalance, Initial residual = 0, Final residual = 0, No Iterations 0
diagonal:  Solving for moment.6.populationBalance, Initial residual = 0, Final residual = 0, No Iterations 0
diagonal:  Solving for moment.7.populationBalance, Initial residual = 0, Final residual = 0, No Iterations 0

Time = 0.013

diagonal:  Solving for moment.0.populationBalance, Initial residual = 0, Final residual = 0, No Iterations 0
diagonal:  Solving for moment.1.populationBalance, Initial residual = 0, Final residual = 0, No Iterations 0
diagonal:  Solving for moment.2.populationBalance, Initial residual = 0, Final residual = 0, No Iterations 0
diagonal:  Solving for moment.3.populationBalance, Initial residual = 0, Final residual = 0, No Iterations 0
diagonal:  Solving for moment.4.populationBalance, Initial residual = 0, Final residual = 0, No Iterations 0
diagonal:  Solving for moment.5.populationBalance, Initial residual = 0, Final residual = 0, No Iterations 0
diagonal:  Solving for moment.6.populationBalance, Initial residual = 0, Final residual = 0, No Iterations 0
diagonal:  Solving for moment.7.populationBalance, Initial residual = 0, Final residual = 0, No Iterations 0

Time = 0.01325

diagonal:  Solving for moment.0.populationBalance, Initial residual = 0, Final residual = 0, No Iterations 0
diagonal:  Solving for moment.1.populationBalance, Initial residual = 0, Final residual = 0, No Iterations 0
diagonal:  Solving for moment.2.populationBalance, Initial residual = 0, Final residual = 0, No Iterations 0
diagonal:  Solving for moment.3.populationBalance, Initial residual = 0, Final residual = 0, No Iterations 0
diagonal:  Solving for moment.4.populationBalance, Initial residual = 0, Final residual = 0, No Iterations 0
diagonal:  Solving for moment.5.populationBalance, Initial residual = 0, Final residual = 0, No Iterations 0
diagonal:  Solving for moment.6.populationBalance, Initial residual = 0, Final residual = 0, No Iterations 0
diagonal:  Solving for moment.7.populationBalance, Initial residual = 0, Final residual = 0, No Iterations 0

Time = 0.0135

diagonal:  Solving for moment.0.populationBalance, Initial residual = 0, Final residual = 0, No Iterations 0
diagonal:  Solving for moment.1.populationBalance, Initial residual = 0, Final residual = 0, No Iterations 0
diagonal:  Solving for moment.2.populationBalance, Initial residual = 0, Final residual = 0, No Iterations 0
diagonal:  Solving for moment.3.populationBalance, Initial residual = 0, Final residual = 0, No Iterations 0
diagonal:  Solving for moment.4.populationBalance, Initial residual = 0, Final residual = 0, No Iterations 0
diagonal:  Solving for moment.5.populationBalance, Initial residual = 0, Final residual = 0, No Iterations 0
diagonal:  Solving for moment.6.populationBalance, Initial residual = 0, Final residual = 0, No Iterations 0
diagonal:  Solving for moment.7.populationBalance, Initial residual = 0, Final residual = 0, No Iterations 0

Time = 0.01375

diagonal:  Solving for moment.0.populationBalance, Initial residual = 0, Final residual = 0, No Iterations 0
diagonal:  Solving for moment.1.populationBalance, Initial residual = 0, Final residual = 0, No Iterations 0
diagonal:  Solving for moment.2.populationBalance, Initial residual = 0, Final residual = 0, No Iterations 0
diagonal:  Solving for moment.3.populationBalance, Initial residual = 0, Final residual = 0, No Iterations 0
diagonal:  Solving for moment.4.populationBalance, Initial residual = 0, Final residual = 0, No Iterations 0
diagonal:  Solving for moment.5.populationBalance, Initial residual = 0, Final residual = 0, No Iterations 0
diagonal:  Solving for moment.6.populationBalance, Initial residual = 0, Final residual = 0, No Iterations 0
diagonal:  Solving for moment.7.populationBalance, Initial residual = 0, Final residual = 0, No Iterations 0

Time = 0.014

diagonal:  Solving for moment.0.populationBalance, Initial residual = 0, Final residual = 0, No Iterations 0
diagonal:  Solving for moment.1.populationBalance, Initial residual = 0, Final residual = 0, No Iterations 0
diagonal:  Solving for moment.2.populationBalance, Initial residual = 0, Final residual = 0, No Iterations 0
diagonal:  Solving for moment.3.populationBalance, Initial residual = 0, Final residual = 0, No Iterations 0
diagonal:  Solving for moment.4.populationBalance, Initial residual = 0, Final residual = 0, No Iterations 0
diagonal:  Solving for moment.5.populationBalance, Initial residual = 0, Final residual = 0, No Iterations 0
diagonal:  Solving for moment.6.populationBalance, Initial residual = 0, Final residual = 0, No Iterations 0
diagonal:  Solving for moment.7.populationBalance, Initial residual = 0, Final residual = 0, No Iterations 0

Time = 0.01425

diagonal:  Solving for moment.0.populationBalance, Initial residual = 0, Final residual = 0, No Iterations 0
diagonal:  Solving for moment.1.populationBalance, Initial residual = 0, Final residual = 0, No Iterations 0
diagonal:  Solving for moment.2.populationBalance, Initial residual = 0, Final residual = 0, No Iterations 0
diagonal:  Solving for moment.3.populationBalance, Initial residual = 0, Final residual = 0, No Iterations 0
diagonal:  Solving for moment.4.populationBalance, Initial residual = 0, Final residual = 0, No Iterations 0
diagonal:  Solving for moment.5.populationBalance, Initial residual = 0, Final residual = 0, No Iterations 0
diagonal:  Solving for moment.6.populationBalance, Initial residual = 0, Final residual = 0, No Iterations 0
diagonal:  Solving for moment.7.populationBalance, Initial residual = 0, Final residual = 0, No Iterations 0

Time = 0.0145

diagonal:  Solving for moment.0.populationBalance, Initial residual = 0, Final residual = 0, No Iterations 0
diagonal:  Solving for moment.1.populationBalance, Initial residual = 0, Final residual = 0, No Iterations 0
diagonal:  Solving for moment.2.populationBalance, Initial residual = 0, Final residual = 0, No Iterations 0
diagonal:  Solving for moment.3.populationBalance, Initial residual = 0, Final residual = 0, No Iterations 0
diagonal:  Solving for moment.4.populationBalance, Initial residual = 0, Final residual = 0, No Iterations 0
diagonal:  Solving for moment.5.populationBalance, Initial residual = 0, Final residual = 0, No Iterations 0
diagonal:  Solving for moment.6.populationBalance, Initial residual = 0, Final residual = 0, No Iterations 0
diagonal:  Solving for moment.7.populationBalance, Initial residual = 0, Final residual = 0, No Iterations 0

Time = 0.01475

diagonal:  Solving for moment.0.populationBalance, Initial residual = 0, Final residual = 0, No Iterations 0
diagonal:  Solving for moment.1.populationBalance, Initial residual = 0, Final residual = 0, No Iterations 0
diagonal:  Solving for moment.2.populationBalance, Initial residual = 0, Final residual = 0, No Iterations 0
diagonal:  Solving for moment.3.populationBalance, Initial residual = 0, Final residual = 0, No Iterations 0
diagonal:  Solving for moment.4.populationBalance, Initial residual = 0, Final residual = 0, No Iterations 0
diagonal:  Solving for moment.5.populationBalance, Initial residual = 0, Final residual = 0, No Iterations 0
diagonal:  Solving for moment.6.populationBalance, Initial residual = 0, Final residual = 0, No Iterations 0
diagonal:  Solving for moment.7.populationBalance, Initial residual = 0, Final residual = 0, No Iterations 0

Time = 0.015

diagonal:  Solving for moment.0.populationBalance, Initial residual = 0, Final residual = 0, No Iterations 0
diagonal:  Solving for moment.1.populationBalance, Initial residual = 0, Final residual = 0, No Iterations 0
diagonal:  Solving for moment.2.populationBalance, Initial residual = 0, Final residual = 0, No Iterations 0
diagonal:  Solving for moment.3.populationBalance, Initial residual = 0, Final residual = 0, No Iterations 0
diagonal:  Solving for moment.4.populationBalance, Initial residual = 0, Final residual = 0, No Iterations 0
diagonal:  Solving for moment.5.populationBalance, Initial residual = 0, Final residual = 0, No Iterations 0
diagonal:  Solving for moment.6.populationBalance, Initial residual = 0, Final residual = 0, No Iterations 0
diagonal:  Solving for moment.7.populationBalance, Initial residual = 0, Final residual = 0, No Iterations 0

Time = 0.01525

diagonal:  Solving for moment.0.populationBalance, Initial residual = 0, Final residual = 0, No Iterations 0
diagonal:  Solving for moment.1.populationBalance, Initial residual = 0, Final residual = 0, No Iterations 0
diagonal:  Solving for moment.2.populationBalance, Initial residual = 0, Final residual = 0, No Iterations 0
diagonal:  Solving for moment.3.populationBalance, Initial residual = 0, Final residual = 0, No Iterations 0
diagonal:  Solving for moment.4.populationBalance, Initial residual = 0, Final residual = 0, No Iterations 0
diagonal:  Solving for moment.5.populationBalance, Initial residual = 0, Final residual = 0, No Iterations 0
diagonal:  Solving for moment.6.populationBalance, Initial residual = 0, Final residual = 0, No Iterations 0
diagonal:  Solving for moment.7.populationBalance, Initial residual = 0, Final residual = 0, No Iterations 0

Time = 0.0155

diagonal:  Solving for moment.0.populationBalance, Initial residual = 0, Final residual = 0, No Iterations 0
diagonal:  Solving for moment.1.populationBalance, Initial residual = 0, Final residual = 0, No Iterations 0
diagonal:  Solving for moment.2.populationBalance, Initial residual = 0, Final residual = 0, No Iterations 0
diagonal:  Solving for moment.3.populationBalance, Initial residual = 0, Final residual = 0, No Iterations 0
diagonal:  Solving for moment.4.populationBalance, Initial residual = 0, Final residual = 0, No Iterations 0
diagonal:  Solving for moment.5.populationBalance, Initial residual = 0, Final residual = 0, No Iterations 0
diagonal:  Solving for moment.6.populationBalance, Initial residual = 0, Final residual = 0, No Iterations 0
diagonal:  Solving for moment.7.populationBalance, Initial residual = 0, Final residual = 0, No Iterations 0

Time = 0.01575

diagonal:  Solving for moment.0.populationBalance, Initial residual = 0, Final residual = 0, No Iterations 0
diagonal:  Solving for moment.1.populationBalance, Initial residual = 0, Final residual = 0, No Iterations 0
diagonal:  Solving for moment.2.populationBalance, Initial residual = 0, Final residual = 0, No Iterations 0
diagonal:  Solving for moment.3.populationBalance, Initial residual = 0, Final residual = 0, No Iterations 0
diagonal:  Solving for moment.4.populationBalance, Initial residual = 0, Final residual = 0, No Iterations 0
diagonal:  Solving for moment.5.populationBalance, Initial residual = 0, Final residual = 0, No Iterations 0
diagonal:  Solving for moment.6.populationBalance, Initial residual = 0, Final residual = 0, No Iterations 0
diagonal:  Solving for moment.7.populationBalance, Initial residual = 0, Final residual = 0, No Iterations 0

Time = 0.016

diagonal:  Solving for moment.0.populationBalance, Initial residual = 0, Final residual = 0, No Iterations 0
diagonal:  Solving for moment.1.populationBalance, Initial residual = 0, Final residual = 0, No Iterations 0
diagonal:  Solving for moment.2.populationBalance, Initial residual = 0, Final residual = 0, No Iterations 0
diagonal:  Solving for moment.3.populationBalance, Initial residual = 0, Final residual = 0, No Iterations 0
diagonal:  Solving for moment.4.populationBalance, Initial residual = 0, Final residual = 0, No Iterations 0
diagonal:  Solving for moment.5.populationBalance, Initial residual = 0, Final residual = 0, No Iterations 0
diagonal:  Solving for moment.6.populationBalance, Initial residual = 0, Final residual = 0, No Iterations 0
diagonal:  Solving for moment.7.populationBalance, Initial residual = 0, Final residual = 0, No Iterations 0

Time = 0.01625

diagonal:  Solving for moment.0.populationBalance, Initial residual = 0, Final residual = 0, No Iterations 0
diagonal:  Solving for moment.1.populationBalance, Initial residual = 0, Final residual = 0, No Iterations 0
diagonal:  Solving for moment.2.populationBalance, Initial residual = 0, Final residual = 0, No Iterations 0
diagonal:  Solving for moment.3.populationBalance, Initial residual = 0, Final residual = 0, No Iterations 0
diagonal:  Solving for moment.4.populationBalance, Initial residual = 0, Final residual = 0, No Iterations 0
diagonal:  Solving for moment.5.populationBalance, Initial residual = 0, Final residual = 0, No Iterations 0
diagonal:  Solving for moment.6.populationBalance, Initial residual = 0, Final residual = 0, No Iterations 0
diagonal:  Solving for moment.7.populationBalance, Initial residual = 0, Final residual = 0, No Iterations 0

Time = 0.0165

diagonal:  Solving for moment.0.populationBalance, Initial residual = 0, Final residual = 0, No Iterations 0
diagonal:  Solving for moment.1.populationBalance, Initial residual = 0, Final residual = 0, No Iterations 0
diagonal:  Solving for moment.2.populationBalance, Initial residual = 0, Final residual = 0, No Iterations 0
diagonal:  Solving for moment.3.populationBalance, Initial residual = 0, Final residual = 0, No Iterations 0
diagonal:  Solving for moment.4.populationBalance, Initial residual = 0, Final residual = 0, No Iterations 0
diagonal:  Solving for moment.5.populationBalance, Initial residual = 0, Final residual = 0, No Iterations 0
diagonal:  Solving for moment.6.populationBalance, Initial residual = 0, Final residual = 0, No Iterations 0
diagonal:  Solving for moment.7.populationBalance, Initial residual = 0, Final residual = 0, No Iterations 0

Time = 0.01675

diagonal:  Solving for moment.0.populationBalance, Initial residual = 0, Final residual = 0, No Iterations 0
diagonal:  Solving for moment.1.populationBalance, Initial residual = 0, Final residual = 0, No Iterations 0
diagonal:  Solving for moment.2.populationBalance, Initial residual = 0, Final residual = 0, No Iterations 0
diagonal:  Solving for moment.3.populationBalance, Initial residual = 0, Final residual = 0, No Iterations 0
diagonal:  Solving for moment.4.populationBalance, Initial residual = 0, Final residual = 0, No Iterations 0
diagonal:  Solving for moment.5.populationBalance, Initial residual = 0, Final residual = 0, No Iterations 0
diagonal:  Solving for moment.6.populationBalance, Initial residual = 0, Final residual = 0, No Iterations 0
diagonal:  Solving for moment.7.populationBalance, Initial residual = 0, Final residual = 0, No Iterations 0

Time = 0.017

diagonal:  Solving for moment.0.populationBalance, Initial residual = 0, Final residual = 0, No Iterations 0
diagonal:  Solving for moment.1.populationBalance, Initial residual = 0, Final residual = 0, No Iterations 0
diagonal:  Solving for moment.2.populationBalance, Initial residual = 0, Final residual = 0, No Iterations 0
diagonal:  Solving for moment.3.populationBalance, Initial residual = 0, Final residual = 0, No Iterations 0
diagonal:  Solving for moment.4.populationBalance, Initial residual = 0, Final residual = 0, No Iterations 0
diagonal:  Solving for moment.5.populationBalance, Initial residual = 0, Final residual = 0, No Iterations 0
diagonal:  Solving for moment.6.populationBalance, Initial residual = 0, Final residual = 0, No Iterations 0
diagonal:  Solving for moment.7.populationBalance, Initial residual = 0, Final residual = 0, No Iterations 0

Time = 0.01725

diagonal:  Solving for moment.0.populationBalance, Initial residual = 0, Final residual = 0, No Iterations 0
diagonal:  Solving for moment.1.populationBalance, Initial residual = 0, Final residual = 0, No Iterations 0
diagonal:  Solving for moment.2.populationBalance, Initial residual = 0, Final residual = 0, No Iterations 0
diagonal:  Solving for moment.3.populationBalance, Initial residual = 0, Final residual = 0, No Iterations 0
diagonal:  Solving for moment.4.populationBalance, Initial residual = 0, Final residual = 0, No Iterations 0
diagonal:  Solving for moment.5.populationBalance, Initial residual = 0, Final residual = 0, No Iterations 0
diagonal:  Solving for moment.6.populationBalance, Initial residual = 0, Final residual = 0, No Iterations 0
diagonal:  Solving for moment.7.populationBalance, Initial residual = 0, Final residual = 0, No Iterations 0

Time = 0.0175

diagonal:  Solving for moment.0.populationBalance, Initial residual = 0, Final residual = 0, No Iterations 0
diagonal:  Solving for moment.1.populationBalance, Initial residual = 0, Final residual = 0, No Iterations 0
diagonal:  Solving for moment.2.populationBalance, Initial residual = 0, Final residual = 0, No Iterations 0
diagonal:  Solving for moment.3.populationBalance, Initial residual = 0, Final residual = 0, No Iterations 0
diagonal:  Solving for moment.4.populationBalance, Initial residual = 0, Final residual = 0, No Iterations 0
diagonal:  Solving for moment.5.populationBalance, Initial residual = 0, Final residual = 0, No Iterations 0
diagonal:  Solving for moment.6.populationBalance, Initial residual = 0, Final residual = 0, No Iterations 0
diagonal:  Solving for moment.7.populationBalance, Initial residual = 0, Final residual = 0, No Iterations 0

Time = 0.01775

diagonal:  Solving for moment.0.populationBalance, Initial residual = 0, Final residual = 0, No Iterations 0
diagonal:  Solving for moment.1.populationBalance, Initial residual = 0, Final residual = 0, No Iterations 0
diagonal:  Solving for moment.2.populationBalance, Initial residual = 0, Final residual = 0, No Iterations 0
diagonal:  Solving for moment.3.populationBalance, Initial residual = 0, Final residual = 0, No Iterations 0
diagonal:  Solving for moment.4.populationBalance, Initial residual = 0, Final residual = 0, No Iterations 0
diagonal:  Solving for moment.5.populationBalance, Initial residual = 0, Final residual = 0, No Iterations 0
diagonal:  Solving for moment.6.populationBalance, Initial residual = 0, Final residual = 0, No Iterations 0
diagonal:  Solving for moment.7.populationBalance, Initial residual = 0, Final residual = 0, No Iterations 0

Time = 0.018

diagonal:  Solving for moment.0.populationBalance, Initial residual = 0, Final residual = 0, No Iterations 0
diagonal:  Solving for moment.1.populationBalance, Initial residual = 0, Final residual = 0, No Iterations 0
diagonal:  Solving for moment.2.populationBalance, Initial residual = 0, Final residual = 0, No Iterations 0
diagonal:  Solving for moment.3.populationBalance, Initial residual = 0, Final residual = 0, No Iterations 0
diagonal:  Solving for moment.4.populationBalance, Initial residual = 0, Final residual = 0, No Iterations 0
diagonal:  Solving for moment.5.populationBalance, Initial residual = 0, Final residual = 0, No Iterations 0
diagonal:  Solving for moment.6.populationBalance, Initial residual = 0, Final residual = 0, No Iterations 0
diagonal:  Solving for moment.7.populationBalance, Initial residual = 0, Final residual = 0, No Iterations 0

Time = 0.01825

diagonal:  Solving for moment.0.populationBalance, Initial residual = 0, Final residual = 0, No Iterations 0
diagonal:  Solving for moment.1.populationBalance, Initial residual = 0, Final residual = 0, No Iterations 0
diagonal:  Solving for moment.2.populationBalance, Initial residual = 0, Final residual = 0, No Iterations 0
diagonal:  Solving for moment.3.populationBalance, Initial residual = 0, Final residual = 0, No Iterations 0
diagonal:  Solving for moment.4.populationBalance, Initial residual = 0, Final residual = 0, No Iterations 0
diagonal:  Solving for moment.5.populationBalance, Initial residual = 0, Final residual = 0, No Iterations 0
diagonal:  Solving for moment.6.populationBalance, Initial residual = 0, Final residual = 0, No Iterations 0
diagonal:  Solving for moment.7.populationBalance, Initial residual = 0, Final residual = 0, No Iterations 0

Time = 0.0185

diagonal:  Solving for moment.0.populationBalance, Initial residual = 0, Final residual = 0, No Iterations 0
diagonal:  Solving for moment.1.populationBalance, Initial residual = 0, Final residual = 0, No Iterations 0
diagonal:  Solving for moment.2.populationBalance, Initial residual = 0, Final residual = 0, No Iterations 0
diagonal:  Solving for moment.3.populationBalance, Initial residual = 0, Final residual = 0, No Iterations 0
diagonal:  Solving for moment.4.populationBalance, Initial residual = 0, Final residual = 0, No Iterations 0
diagonal:  Solving for moment.5.populationBalance, Initial residual = 0, Final residual = 0, No Iterations 0
diagonal:  Solving for moment.6.populationBalance, Initial residual = 0, Final residual = 0, No Iterations 0
diagonal:  Solving for moment.7.populationBalance, Initial residual = 0, Final residual = 0, No Iterations 0

Time = 0.01875

diagonal:  Solving for moment.0.populationBalance, Initial residual = 0, Final residual = 0, No Iterations 0
diagonal:  Solving for moment.1.populationBalance, Initial residual = 0, Final residual = 0, No Iterations 0
diagonal:  Solving for moment.2.populationBalance, Initial residual = 0, Final residual = 0, No Iterations 0
diagonal:  Solving for moment.3.populationBalance, Initial residual = 0, Final residual = 0, No Iterations 0
diagonal:  Solving for moment.4.populationBalance, Initial residual = 0, Final residual = 0, No Iterations 0
diagonal:  Solving for moment.5.populationBalance, Initial residual = 0, Final residual = 0, No Iterations 0
diagonal:  Solving for moment.6.populationBalance, Initial residual = 0, Final residual = 0, No Iterations 0
diagonal:  Solving for moment.7.populationBalance, Initial residual = 0, Final residual = 0, No Iterations 0

Time = 0.019

diagonal:  Solving for moment.0.populationBalance, Initial residual = 0, Final residual = 0, No Iterations 0
diagonal:  Solving for moment.1.populationBalance, Initial residual = 0, Final residual = 0, No Iterations 0
diagonal:  Solving for moment.2.populationBalance, Initial residual = 0, Final residual = 0, No Iterations 0
diagonal:  Solving for moment.3.populationBalance, Initial residual = 0, Final residual = 0, No Iterations 0
diagonal:  Solving for moment.4.populationBalance, Initial residual = 0, Final residual = 0, No Iterations 0
diagonal:  Solving for moment.5.populationBalance, Initial residual = 0, Final residual = 0, No Iterations 0
diagonal:  Solving for moment.6.populationBalance, Initial residual = 0, Final residual = 0, No Iterations 0
diagonal:  Solving for moment.7.populationBalance, Initial residual = 0, Final residual = 0, No Iterations 0

Time = 0.01925

diagonal:  Solving for moment.0.populationBalance, Initial residual = 0, Final residual = 0, No Iterations 0
diagonal:  Solving for moment.1.populationBalance, Initial residual = 0, Final residual = 0, No Iterations 0
diagonal:  Solving for moment.2.populationBalance, Initial residual = 0, Final residual = 0, No Iterations 0
diagonal:  Solving for moment.3.populationBalance, Initial residual = 0, Final residual = 0, No Iterations 0
diagonal:  Solving for moment.4.populationBalance, Initial residual = 0, Final residual = 0, No Iterations 0
diagonal:  Solving for moment.5.populationBalance, Initial residual = 0, Final residual = 0, No Iterations 0
diagonal:  Solving for moment.6.populationBalance, Initial residual = 0, Final residual = 0, No Iterations 0
diagonal:  Solving for moment.7.populationBalance, Initial residual = 0, Final residual = 0, No Iterations 0

Time = 0.0195

diagonal:  Solving for moment.0.populationBalance, Initial residual = 0, Final residual = 0, No Iterations 0
diagonal:  Solving for moment.1.populationBalance, Initial residual = 0, Final residual = 0, No Iterations 0
diagonal:  Solving for moment.2.populationBalance, Initial residual = 0, Final residual = 0, No Iterations 0
diagonal:  Solving for moment.3.populationBalance, Initial residual = 0, Final residual = 0, No Iterations 0
diagonal:  Solving for moment.4.populationBalance, Initial residual = 0, Final residual = 0, No Iterations 0
diagonal:  Solving for moment.5.populationBalance, Initial residual = 0, Final residual = 0, No Iterations 0
diagonal:  Solving for moment.6.populationBalance, Initial residual = 0, Final residual = 0, No Iterations 0
diagonal:  Solving for moment.7.populationBalance, Initial residual = 0, Final residual = 0, No Iterations 0

Time = 0.01975

diagonal:  Solving for moment.0.populationBalance, Initial residual = 0, Final residual = 0, No Iterations 0
diagonal:  Solving for moment.1.populationBalance, Initial residual = 0, Final residual = 0, No Iterations 0
diagonal:  Solving for moment.2.populationBalance, Initial residual = 0, Final residual = 0, No Iterations 0
diagonal:  Solving for moment.3.populationBalance, Initial residual = 0, Final residual = 0, No Iterations 0
diagonal:  Solving for moment.4.populationBalance, Initial residual = 0, Final residual = 0, No Iterations 0
diagonal:  Solving for moment.5.populationBalance, Initial residual = 0, Final residual = 0, No Iterations 0
diagonal:  Solving for moment.6.populationBalance, Initial residual = 0, Final residual = 0, No Iterations 0
diagonal:  Solving for moment.7.populationBalance, Initial residual = 0, Final residual = 0, No Iterations 0

Time = 0.02

diagonal:  Solving for moment.0.populationBalance, Initial residual = 0, Final residual = 0, No Iterations 0
diagonal:  Solving for moment.1.populationBalance, Initial residual = 0, Final residual = 0, No Iterations 0
diagonal:  Solving for moment.2.populationBalance, Initial residual = 0, Final residual = 0, No Iterations 0
diagonal:  Solving for moment.3.populationBalance, Initial residual = 0, Final residual = 0, No Iterations 0
diagonal:  Solving for moment.4.populationBalance, Initial residual = 0, Final residual = 0, No Iterations 0
diagonal:  Solving for moment.5.populationBalance, Initial residual = 0, Final residual = 0, No Iterations 0
diagonal:  Solving for moment.6.populationBalance, Initial residual = 0, Final residual = 0, No Iterations 0
diagonal:  Solving for moment.7.populationBalance, Initial residual = 0, Final residual = 0, No Iterations 0

Time = 0.02025

diagonal:  Solving for moment.0.populationBalance, Initial residual = 0, Final residual = 0, No Iterations 0
diagonal:  Solving for moment.1.populationBalance, Initial residual = 0, Final residual = 0, No Iterations 0
diagonal:  Solving for moment.2.populationBalance, Initial residual = 0, Final residual = 0, No Iterations 0
diagonal:  Solving for moment.3.populationBalance, Initial residual = 0, Final residual = 0, No Iterations 0
diagonal:  Solving for moment.4.populationBalance, Initial residual = 0, Final residual = 0, No Iterations 0
diagonal:  Solving for moment.5.populationBalance, Initial residual = 0, Final residual = 0, No Iterations 0
diagonal:  Solving for moment.6.populationBalance, Initial residual = 0, Final residual = 0, No Iterations 0
diagonal:  Solving for moment.7.populationBalance, Initial residual = 0, Final residual = 0, No Iterations 0

Time = 0.0205

diagonal:  Solving for moment.0.populationBalance, Initial residual = 0, Final residual = 0, No Iterations 0
diagonal:  Solving for moment.1.populationBalance, Initial residual = 0, Final residual = 0, No Iterations 0
diagonal:  Solving for moment.2.populationBalance, Initial residual = 0, Final residual = 0, No Iterations 0
diagonal:  Solving for moment.3.populationBalance, Initial residual = 0, Final residual = 0, No Iterations 0
diagonal:  Solving for moment.4.populationBalance, Initial residual = 0, Final residual = 0, No Iterations 0
diagonal:  Solving for moment.5.populationBalance, Initial residual = 0, Final residual = 0, No Iterations 0
diagonal:  Solving for moment.6.populationBalance, Initial residual = 0, Final residual = 0, No Iterations 0
diagonal:  Solving for moment.7.populationBalance, Initial residual = 0, Final residual = 0, No Iterations 0

Time = 0.02075

diagonal:  Solving for moment.0.populationBalance, Initial residual = 0, Final residual = 0, No Iterations 0
diagonal:  Solving for moment.1.populationBalance, Initial residual = 0, Final residual = 0, No Iterations 0
diagonal:  Solving for moment.2.populationBalance, Initial residual = 0, Final residual = 0, No Iterations 0
diagonal:  Solving for moment.3.populationBalance, Initial residual = 0, Final residual = 0, No Iterations 0
diagonal:  Solving for moment.4.populationBalance, Initial residual = 0, Final residual = 0, No Iterations 0
diagonal:  Solving for moment.5.populationBalance, Initial residual = 0, Final residual = 0, No Iterations 0
diagonal:  Solving for moment.6.populationBalance, Initial residual = 0, Final residual = 0, No Iterations 0
diagonal:  Solving for moment.7.populationBalance, Initial residual = 0, Final residual = 0, No Iterations 0

Time = 0.021

diagonal:  Solving for moment.0.populationBalance, Initial residual = 0, Final residual = 0, No Iterations 0
diagonal:  Solving for moment.1.populationBalance, Initial residual = 0, Final residual = 0, No Iterations 0
diagonal:  Solving for moment.2.populationBalance, Initial residual = 0, Final residual = 0, No Iterations 0
diagonal:  Solving for moment.3.populationBalance, Initial residual = 0, Final residual = 0, No Iterations 0
diagonal:  Solving for moment.4.populationBalance, Initial residual = 0, Final residual = 0, No Iterations 0
diagonal:  Solving for moment.5.populationBalance, Initial residual = 0, Final residual = 0, No Iterations 0
diagonal:  Solving for moment.6.populationBalance, Initial residual = 0, Final residual = 0, No Iterations 0
diagonal:  Solving for moment.7.populationBalance, Initial residual = 0, Final residual = 0, No Iterations 0

Time = 0.02125

diagonal:  Solving for moment.0.populationBalance, Initial residual = 0, Final residual = 0, No Iterations 0
diagonal:  Solving for moment.1.populationBalance, Initial residual = 0, Final residual = 0, No Iterations 0
diagonal:  Solving for moment.2.populationBalance, Initial residual = 0, Final residual = 0, No Iterations 0
diagonal:  Solving for moment.3.populationBalance, Initial residual = 0, Final residual = 0, No Iterations 0
diagonal:  Solving for moment.4.populationBalance, Initial residual = 0, Final residual = 0, No Iterations 0
diagonal:  Solving for moment.5.populationBalance, Initial residual = 0, Final residual = 0, No Iterations 0
diagonal:  Solving for moment.6.populationBalance, Initial residual = 0, Final residual = 0, No Iterations 0
diagonal:  Solving for moment.7.populationBalance, Initial residual = 0, Final residual = 0, No Iterations 0

Time = 0.0215

diagonal:  Solving for moment.0.populationBalance, Initial residual = 0, Final residual = 0, No Iterations 0
diagonal:  Solving for moment.1.populationBalance, Initial residual = 0, Final residual = 0, No Iterations 0
diagonal:  Solving for moment.2.populationBalance, Initial residual = 0, Final residual = 0, No Iterations 0
diagonal:  Solving for moment.3.populationBalance, Initial residual = 0, Final residual = 0, No Iterations 0
diagonal:  Solving for moment.4.populationBalance, Initial residual = 0, Final residual = 0, No Iterations 0
diagonal:  Solving for moment.5.populationBalance, Initial residual = 0, Final residual = 0, No Iterations 0
diagonal:  Solving for moment.6.populationBalance, Initial residual = 0, Final residual = 0, No Iterations 0
diagonal:  Solving for moment.7.populationBalance, Initial residual = 0, Final residual = 0, No Iterations 0

Time = 0.02175

diagonal:  Solving for moment.0.populationBalance, Initial residual = 0, Final residual = 0, No Iterations 0
diagonal:  Solving for moment.1.populationBalance, Initial residual = 0, Final residual = 0, No Iterations 0
diagonal:  Solving for moment.2.populationBalance, Initial residual = 0, Final residual = 0, No Iterations 0
diagonal:  Solving for moment.3.populationBalance, Initial residual = 0, Final residual = 0, No Iterations 0
diagonal:  Solving for moment.4.populationBalance, Initial residual = 0, Final residual = 0, No Iterations 0
diagonal:  Solving for moment.5.populationBalance, Initial residual = 0, Final residual = 0, No Iterations 0
diagonal:  Solving for moment.6.populationBalance, Initial residual = 0, Final residual = 0, No Iterations 0
diagonal:  Solving for moment.7.populationBalance, Initial residual = 0, Final residual = 0, No Iterations 0

Time = 0.022

diagonal:  Solving for moment.0.populationBalance, Initial residual = 0, Final residual = 0, No Iterations 0
diagonal:  Solving for moment.1.populationBalance, Initial residual = 0, Final residual = 0, No Iterations 0
diagonal:  Solving for moment.2.populationBalance, Initial residual = 0, Final residual = 0, No Iterations 0
diagonal:  Solving for moment.3.populationBalance, Initial residual = 0, Final residual = 0, No Iterations 0
diagonal:  Solving for moment.4.populationBalance, Initial residual = 0, Final residual = 0, No Iterations 0
diagonal:  Solving for moment.5.populationBalance, Initial residual = 0, Final residual = 0, No Iterations 0
diagonal:  Solving for moment.6.populationBalance, Initial residual = 0, Final residual = 0, No Iterations 0
diagonal:  Solving for moment.7.populationBalance, Initial residual = 0, Final residual = 0, No Iterations 0

Time = 0.02225

[...]
diagonal:  Solving for moment.4.populationBalance, Initial residual = 0, Final residual = 0, No Iterations 0
diagonal:  Solving for moment.5.populationBalance, Initial residual = 0, Final residual = 0, No Iterations 0
diagonal:  Solving for moment.6.populationBalance, Initial residual = 0, Final residual = 0, No Iterations 0
diagonal:  Solving for moment.7.populationBalance, Initial residual = 0, Final residual = 0, No Iterations 0

Time = 0.99475

diagonal:  Solving for moment.0.populationBalance, Initial residual = 0, Final residual = 0, No Iterations 0
diagonal:  Solving for moment.1.populationBalance, Initial residual = 0, Final residual = 0, No Iterations 0
diagonal:  Solving for moment.2.populationBalance, Initial residual = 0, Final residual = 0, No Iterations 0
diagonal:  Solving for moment.3.populationBalance, Initial residual = 0, Final residual = 0, No Iterations 0
diagonal:  Solving for moment.4.populationBalance, Initial residual = 0, Final residual = 0, No Iterations 0
diagonal:  Solving for moment.5.populationBalance, Initial residual = 0, Final residual = 0, No Iterations 0
diagonal:  Solving for moment.6.populationBalance, Initial residual = 0, Final residual = 0, No Iterations 0
diagonal:  Solving for moment.7.populationBalance, Initial residual = 0, Final residual = 0, No Iterations 0

Time = 0.995

diagonal:  Solving for moment.0.populationBalance, Initial residual = 0, Final residual = 0, No Iterations 0
diagonal:  Solving for moment.1.populationBalance, Initial residual = 0, Final residual = 0, No Iterations 0
diagonal:  Solving for moment.2.populationBalance, Initial residual = 0, Final residual = 0, No Iterations 0
diagonal:  Solving for moment.3.populationBalance, Initial residual = 0, Final residual = 0, No Iterations 0
diagonal:  Solving for moment.4.populationBalance, Initial residual = 0, Final residual = 0, No Iterations 0
diagonal:  Solving for moment.5.populationBalance, Initial residual = 0, Final residual = 0, No Iterations 0
diagonal:  Solving for moment.6.populationBalance, Initial residual = 0, Final residual = 0, No Iterations 0
diagonal:  Solving for moment.7.populationBalance, Initial residual = 0, Final residual = 0, No Iterations 0

Time = 0.99525

diagonal:  Solving for moment.0.populationBalance, Initial residual = 0, Final residual = 0, No Iterations 0
diagonal:  Solving for moment.1.populationBalance, Initial residual = 0, Final residual = 0, No Iterations 0
diagonal:  Solving for moment.2.populationBalance, Initial residual = 0, Final residual = 0, No Iterations 0
diagonal:  Solving for moment.3.populationBalance, Initial residual = 0, Final residual = 0, No Iterations 0
diagonal:  Solving for moment.4.populationBalance, Initial residual = 0, Final residual = 0, No Iterations 0
diagonal:  Solving for moment.5.populationBalance, Initial residual = 0, Final residual = 0, No Iterations 0
diagonal:  Solving for moment.6.populationBalance, Initial residual = 0, Final residual = 0, No Iterations 0
diagonal:  Solving for moment.7.populationBalance, Initial residual = 0, Final residual = 0, No Iterations 0

Time = 0.9955

diagonal:  Solving for moment.0.populationBalance, Initial residual = 0, Final residual = 0, No Iterations 0
diagonal:  Solving for moment.1.populationBalance, Initial residual = 0, Final residual = 0, No Iterations 0
diagonal:  Solving for moment.2.populationBalance, Initial residual = 0, Final residual = 0, No Iterations 0
diagonal:  Solving for moment.3.populationBalance, Initial residual = 0, Final residual = 0, No Iterations 0
diagonal:  Solving for moment.4.populationBalance, Initial residual = 0, Final residual = 0, No Iterations 0
diagonal:  Solving for moment.5.populationBalance, Initial residual = 0, Final residual = 0, No Iterations 0
diagonal:  Solving for moment.6.populationBalance, Initial residual = 0, Final residual = 0, No Iterations 0
diagonal:  Solving for moment.7.populationBalance, Initial residual = 0, Final residual = 0, No Iterations 0

Time = 0.99575

diagonal:  Solving for moment.0.populationBalance, Initial residual = 0, Final residual = 0, No Iterations 0
diagonal:  Solving for moment.1.populationBalance, Initial residual = 0, Final residual = 0, No Iterations 0
diagonal:  Solving for moment.2.populationBalance, Initial residual = 0, Final residual = 0, No Iterations 0
diagonal:  Solving for moment.3.populationBalance, Initial residual = 0, Final residual = 0, No Iterations 0
diagonal:  Solving for moment.4.populationBalance, Initial residual = 0, Final residual = 0, No Iterations 0
diagonal:  Solving for moment.5.populationBalance, Initial residual = 0, Final residual = 0, No Iterations 0
diagonal:  Solving for moment.6.populationBalance, Initial residual = 0, Final residual = 0, No Iterations 0
diagonal:  Solving for moment.7.populationBalance, Initial residual = 0, Final residual = 0, No Iterations 0

Time = 0.996

diagonal:  Solving for moment.0.populationBalance, Initial residual = 0, Final residual = 0, No Iterations 0
diagonal:  Solving for moment.1.populationBalance, Initial residual = 0, Final residual = 0, No Iterations 0
diagonal:  Solving for moment.2.populationBalance, Initial residual = 0, Final residual = 0, No Iterations 0
diagonal:  Solving for moment.3.populationBalance, Initial residual = 0, Final residual = 0, No Iterations 0
diagonal:  Solving for moment.4.populationBalance, Initial residual = 0, Final residual = 0, No Iterations 0
diagonal:  Solving for moment.5.populationBalance, Initial residual = 0, Final residual = 0, No Iterations 0
diagonal:  Solving for moment.6.populationBalance, Initial residual = 0, Final residual = 0, No Iterations 0
diagonal:  Solving for moment.7.populationBalance, Initial residual = 0, Final residual = 0, No Iterations 0

Time = 0.99625

diagonal:  Solving for moment.0.populationBalance, Initial residual = 0, Final residual = 0, No Iterations 0
diagonal:  Solving for moment.1.populationBalance, Initial residual = 0, Final residual = 0, No Iterations 0
diagonal:  Solving for moment.2.populationBalance, Initial residual = 0, Final residual = 0, No Iterations 0
diagonal:  Solving for moment.3.populationBalance, Initial residual = 0, Final residual = 0, No Iterations 0
diagonal:  Solving for moment.4.populationBalance, Initial residual = 0, Final residual = 0, No Iterations 0
diagonal:  Solving for moment.5.populationBalance, Initial residual = 0, Final residual = 0, No Iterations 0
diagonal:  Solving for moment.6.populationBalance, Initial residual = 0, Final residual = 0, No Iterations 0
diagonal:  Solving for moment.7.populationBalance, Initial residual = 0, Final residual = 0, No Iterations 0

Time = 0.9965

diagonal:  Solving for moment.0.populationBalance, Initial residual = 0, Final residual = 0, No Iterations 0
diagonal:  Solving for moment.1.populationBalance, Initial residual = 0, Final residual = 0, No Iterations 0
diagonal:  Solving for moment.2.populationBalance, Initial residual = 0, Final residual = 0, No Iterations 0
diagonal:  Solving for moment.3.populationBalance, Initial residual = 0, Final residual = 0, No Iterations 0
diagonal:  Solving for moment.4.populationBalance, Initial residual = 0, Final residual = 0, No Iterations 0
diagonal:  Solving for moment.5.populationBalance, Initial residual = 0, Final residual = 0, No Iterations 0
diagonal:  Solving for moment.6.populationBalance, Initial residual = 0, Final residual = 0, No Iterations 0
diagonal:  Solving for moment.7.populationBalance, Initial residual = 0, Final residual = 0, No Iterations 0

Time = 0.99675

diagonal:  Solving for moment.0.populationBalance, Initial residual = 0, Final residual = 0, No Iterations 0
diagonal:  Solving for moment.1.populationBalance, Initial residual = 0, Final residual = 0, No Iterations 0
diagonal:  Solving for moment.2.populationBalance, Initial residual = 0, Final residual = 0, No Iterations 0
diagonal:  Solving for moment.3.populationBalance, Initial residual = 0, Final residual = 0, No Iterations 0
diagonal:  Solving for moment.4.populationBalance, Initial residual = 0, Final residual = 0, No Iterations 0
diagonal:  Solving for moment.5.populationBalance, Initial residual = 0, Final residual = 0, No Iterations 0
diagonal:  Solving for moment.6.populationBalance, Initial residual = 0, Final residual = 0, No Iterations 0
diagonal:  Solving for moment.7.populationBalance, Initial residual = 0, Final residual = 0, No Iterations 0

Time = 0.997

diagonal:  Solving for moment.0.populationBalance, Initial residual = 0, Final residual = 0, No Iterations 0
diagonal:  Solving for moment.1.populationBalance, Initial residual = 0, Final residual = 0, No Iterations 0
diagonal:  Solving for moment.2.populationBalance, Initial residual = 0, Final residual = 0, No Iterations 0
diagonal:  Solving for moment.3.populationBalance, Initial residual = 0, Final residual = 0, No Iterations 0
diagonal:  Solving for moment.4.populationBalance, Initial residual = 0, Final residual = 0, No Iterations 0
diagonal:  Solving for moment.5.populationBalance, Initial residual = 0, Final residual = 0, No Iterations 0
diagonal:  Solving for moment.6.populationBalance, Initial residual = 0, Final residual = 0, No Iterations 0
diagonal:  Solving for moment.7.populationBalance, Initial residual = 0, Final residual = 0, No Iterations 0

Time = 0.99725

diagonal:  Solving for moment.0.populationBalance, Initial residual = 0, Final residual = 0, No Iterations 0
diagonal:  Solving for moment.1.populationBalance, Initial residual = 0, Final residual = 0, No Iterations 0
diagonal:  Solving for moment.2.populationBalance, Initial residual = 0, Final residual = 0, No Iterations 0
diagonal:  Solving for moment.3.populationBalance, Initial residual = 0, Final residual = 0, No Iterations 0
diagonal:  Solving for moment.4.populationBalance, Initial residual = 0, Final residual = 0, No Iterations 0
diagonal:  Solving for moment.5.populationBalance, Initial residual = 0, Final residual = 0, No Iterations 0
diagonal:  Solving for moment.6.populationBalance, Initial residual = 0, Final residual = 0, No Iterations 0
diagonal:  Solving for moment.7.populationBalance, Initial residual = 0, Final residual = 0, No Iterations 0

Time = 0.9975

diagonal:  Solving for moment.0.populationBalance, Initial residual = 0, Final residual = 0, No Iterations 0
diagonal:  Solving for moment.1.populationBalance, Initial residual = 0, Final residual = 0, No Iterations 0
diagonal:  Solving for moment.2.populationBalance, Initial residual = 0, Final residual = 0, No Iterations 0
diagonal:  Solving for moment.3.populationBalance, Initial residual = 0, Final residual = 0, No Iterations 0
diagonal:  Solving for moment.4.populationBalance, Initial residual = 0, Final residual = 0, No Iterations 0
diagonal:  Solving for moment.5.populationBalance, Initial residual = 0, Final residual = 0, No Iterations 0
diagonal:  Solving for moment.6.populationBalance, Initial residual = 0, Final residual = 0, No Iterations 0
diagonal:  Solving for moment.7.populationBalance, Initial residual = 0, Final residual = 0, No Iterations 0

Time = 0.99775

diagonal:  Solving for moment.0.populationBalance, Initial residual = 0, Final residual = 0, No Iterations 0
diagonal:  Solving for moment.1.populationBalance, Initial residual = 0, Final residual = 0, No Iterations 0
diagonal:  Solving for moment.2.populationBalance, Initial residual = 0, Final residual = 0, No Iterations 0
diagonal:  Solving for moment.3.populationBalance, Initial residual = 0, Final residual = 0, No Iterations 0
diagonal:  Solving for moment.4.populationBalance, Initial residual = 0, Final residual = 0, No Iterations 0
diagonal:  Solving for moment.5.populationBalance, Initial residual = 0, Final residual = 0, No Iterations 0
diagonal:  Solving for moment.6.populationBalance, Initial residual = 0, Final residual = 0, No Iterations 0
diagonal:  Solving for moment.7.populationBalance, Initial residual = 0, Final residual = 0, No Iterations 0

Time = 0.998

diagonal:  Solving for moment.0.populationBalance, Initial residual = 0, Final residual = 0, No Iterations 0
diagonal:  Solving for moment.1.populationBalance, Initial residual = 0, Final residual = 0, No Iterations 0
diagonal:  Solving for moment.2.populationBalance, Initial residual = 0, Final residual = 0, No Iterations 0
diagonal:  Solving for moment.3.populationBalance, Initial residual = 0, Final residual = 0, No Iterations 0
diagonal:  Solving for moment.4.populationBalance, Initial residual = 0, Final residual = 0, No Iterations 0
diagonal:  Solving for moment.5.populationBalance, Initial residual = 0, Final residual = 0, No Iterations 0
diagonal:  Solving for moment.6.populationBalance, Initial residual = 0, Final residual = 0, No Iterations 0
diagonal:  Solving for moment.7.populationBalance, Initial residual = 0, Final residual = 0, No Iterations 0

Time = 0.99825

diagonal:  Solving for moment.0.populationBalance, Initial residual = 0, Final residual = 0, No Iterations 0
diagonal:  Solving for moment.1.populationBalance, Initial residual = 0, Final residual = 0, No Iterations 0
diagonal:  Solving for moment.2.populationBalance, Initial residual = 0, Final residual = 0, No Iterations 0
diagonal:  Solving for moment.3.populationBalance, Initial residual = 0, Final residual = 0, No Iterations 0
diagonal:  Solving for moment.4.populationBalance, Initial residual = 0, Final residual = 0, No Iterations 0
diagonal:  Solving for moment.5.populationBalance, Initial residual = 0, Final residual = 0, No Iterations 0
diagonal:  Solving for moment.6.populationBalance, Initial residual = 0, Final residual = 0, No Iterations 0
diagonal:  Solving for moment.7.populationBalance, Initial residual = 0, Final residual = 0, No Iterations 0

Time = 0.9985

diagonal:  Solving for moment.0.populationBalance, Initial residual = 0, Final residual = 0, No Iterations 0
diagonal:  Solving for moment.1.populationBalance, Initial residual = 0, Final residual = 0, No Iterations 0
diagonal:  Solving for moment.2.populationBalance, Initial residual = 0, Final residual = 0, No Iterations 0
diagonal:  Solving for moment.3.populationBalance, Initial residual = 0, Final residual = 0, No Iterations 0
diagonal:  Solving for moment.4.populationBalance, Initial residual = 0, Final residual = 0, No Iterations 0
diagonal:  Solving for moment.5.populationBalance, Initial residual = 0, Final residual = 0, No Iterations 0
diagonal:  Solving for moment.6.populationBalance, Initial residual = 0, Final residual = 0, No Iterations 0
diagonal:  Solving for moment.7.populationBalance, Initial residual = 0, Final residual = 0, No Iterations 0

Time = 0.99875

diagonal:  Solving for moment.0.populationBalance, Initial residual = 0, Final residual = 0, No Iterations 0
diagonal:  Solving for moment.1.populationBalance, Initial residual = 0, Final residual = 0, No Iterations 0
diagonal:  Solving for moment.2.populationBalance, Initial residual = 0, Final residual = 0, No Iterations 0
diagonal:  Solving for moment.3.populationBalance, Initial residual = 0, Final residual = 0, No Iterations 0
diagonal:  Solving for moment.4.populationBalance, Initial residual = 0, Final residual = 0, No Iterations 0
diagonal:  Solving for moment.5.populationBalance, Initial residual = 0, Final residual = 0, No Iterations 0
diagonal:  Solving for moment.6.populationBalance, Initial residual = 0, Final residual = 0, No Iterations 0
diagonal:  Solving for moment.7.populationBalance, Initial residual = 0, Final residual = 0, No Iterations 0

Time = 0.999

diagonal:  Solving for moment.0.populationBalance, Initial residual = 0, Final residual = 0, No Iterations 0
diagonal:  Solving for moment.1.populationBalance, Initial residual = 0, Final residual = 0, No Iterations 0
diagonal:  Solving for moment.2.populationBalance, Initial residual = 0, Final residual = 0, No Iterations 0
diagonal:  Solving for moment.3.populationBalance, Initial residual = 0, Final residual = 0, No Iterations 0
diagonal:  Solving for moment.4.populationBalance, Initial residual = 0, Final residual = 0, No Iterations 0
diagonal:  Solving for moment.5.populationBalance, Initial residual = 0, Final residual = 0, No Iterations 0
diagonal:  Solving for moment.6.populationBalance, Initial residual = 0, Final residual = 0, No Iterations 0
diagonal:  Solving for moment.7.populationBalance, Initial residual = 0, Final residual = 0, No Iterations 0

Time = 0.99925

diagonal:  Solving for moment.0.populationBalance, Initial residual = 0, Final residual = 0, No Iterations 0
diagonal:  Solving for moment.1.populationBalance, Initial residual = 0, Final residual = 0, No Iterations 0
diagonal:  Solving for moment.2.populationBalance, Initial residual = 0, Final residual = 0, No Iterations 0
diagonal:  Solving for moment.3.populationBalance, Initial residual = 0, Final residual = 0, No Iterations 0
diagonal:  Solving for moment.4.populationBalance, Initial residual = 0, Final residual = 0, No Iterations 0
diagonal:  Solving for moment.5.populationBalance, Initial residual = 0, Final residual = 0, No Iterations 0
diagonal:  Solving for moment.6.populationBalance, Initial residual = 0, Final residual = 0, No Iterations 0
diagonal:  Solving for moment.7.populationBalance, Initial residual = 0, Final residual = 0, No Iterations 0

Time = 0.9995

diagonal:  Solving for moment.0.populationBalance, Initial residual = 0, Final residual = 0, No Iterations 0
diagonal:  Solving for moment.1.populationBalance, Initial residual = 0, Final residual = 0, No Iterations 0
diagonal:  Solving for moment.2.populationBalance, Initial residual = 0, Final residual = 0, No Iterations 0
diagonal:  Solving for moment.3.populationBalance, Initial residual = 0, Final residual = 0, No Iterations 0
diagonal:  Solving for moment.4.populationBalance, Initial residual = 0, Final residual = 0, No Iterations 0
diagonal:  Solving for moment.5.populationBalance, Initial residual = 0, Final residual = 0, No Iterations 0
diagonal:  Solving for moment.6.populationBalance, Initial residual = 0, Final residual = 0, No Iterations 0
diagonal:  Solving for moment.7.populationBalance, Initial residual = 0, Final residual = 0, No Iterations 0

Time = 0.99975

diagonal:  Solving for moment.0.populationBalance, Initial residual = 0, Final residual = 0, No Iterations 0
diagonal:  Solving for moment.1.populationBalance, Initial residual = 0, Final residual = 0, No Iterations 0
diagonal:  Solving for moment.2.populationBalance, Initial residual = 0, Final residual = 0, No Iterations 0
diagonal:  Solving for moment.3.populationBalance, Initial residual = 0, Final residual = 0, No Iterations 0
diagonal:  Solving for moment.4.populationBalance, Initial residual = 0, Final residual = 0, No Iterations 0
diagonal:  Solving for moment.5.populationBalance, Initial residual = 0, Final residual = 0, No Iterations 0
diagonal:  Solving for moment.6.populationBalance, Initial residual = 0, Final residual = 0, No Iterations 0
diagonal:  Solving for moment.7.populationBalance, Initial residual = 0, Final residual = 0, No Iterations 0

Time = 1

diagonal:  Solving for moment.0.populationBalance, Initial residual = 0, Final residual = 0, No Iterations 0
diagonal:  Solving for moment.1.populationBalance, Initial residual = 0, Final residual = 0, No Iterations 0
diagonal:  Solving for moment.2.populationBalance, Initial residual = 0, Final residual = 0, No Iterations 0
diagonal:  Solving for moment.3.populationBalance, Initial residual = 0, Final residual = 0, No Iterations 0
diagonal:  Solving for moment.4.populationBalance, Initial residual = 0, Final residual = 0, No Iterations 0
diagonal:  Solving for moment.5.populationBalance, Initial residual = 0, Final residual = 0, No Iterations 0
diagonal:  Solving for moment.6.populationBalance, Initial residual = 0, Final residual = 0, No Iterations 0
diagonal:  Solving for moment.7.populationBalance, Initial residual = 0, Final residual = 0, No Iterations 0
End

